*SPEF "IEEE 1481-1999"
*DESIGN "Cubic_engine"
*DATE "Sat Aug 23 22:27:25 2025"
*VENDOR "SYNOPSYS INC"
*PROGRAM "Synopsys Design Compiler cmos"
*VERSION "W-2024.09-SP2"
*DESIGN_FLOW "SYNTHESIS"
*DIVIDER /
*DELIMITER :
*BUS_DELIMITER []
*T_UNIT 1.0 NS
*C_UNIT 1.0 PF
*R_UNIT 1.0 KOHM
*L_UNIT 1.0 HENRY

*PORTS

clk I *L 0.000e+00 *S 1.156e-01 1.156e-01 
rst I *L 0.000e+00 *S 1.868e-02 1.868e-02 
X_in\[23\] I *L 0.000e+00 *S 1.144e-03 1.144e-03 
X_in\[22\] I *L 0.000e+00 *S 1.144e-03 1.144e-03 
X_in\[21\] I *L 0.000e+00 *S 1.144e-03 1.144e-03 
X_in\[20\] I *L 0.000e+00 *S 1.144e-03 1.144e-03 
X_in\[19\] I *L 0.000e+00 *S 1.144e-03 1.144e-03 
X_in\[18\] I *L 0.000e+00 *S 1.144e-03 1.144e-03 
X_in\[17\] I *L 0.000e+00 *S 1.144e-03 1.144e-03 
X_in\[16\] I *L 0.000e+00 *S 1.144e-03 1.144e-03 
X_in\[15\] I *L 0.000e+00 *S 1.144e-03 1.144e-03 
X_in\[14\] I *L 0.000e+00 *S 1.144e-03 1.144e-03 
X_in\[13\] I *L 0.000e+00 *S 1.144e-03 1.144e-03 
X_in\[12\] I *L 0.000e+00 *S 1.144e-03 1.144e-03 
X_in\[11\] I *L 0.000e+00 *S 1.144e-03 1.144e-03 
X_in\[10\] I *L 0.000e+00 *S 1.144e-03 1.144e-03 
X_in\[9\] I *L 0.000e+00 *S 1.144e-03 1.144e-03 
X_in\[8\] I *L 0.000e+00 *S 1.144e-03 1.144e-03 
X_in\[7\] I *L 0.000e+00 *S 1.144e-03 1.144e-03 
X_in\[6\] I *L 0.000e+00 *S 1.144e-03 1.144e-03 
X_in\[5\] I *L 0.000e+00 *S 1.144e-03 1.144e-03 
X_in\[4\] I *L 0.000e+00 *S 1.144e-03 1.144e-03 
X_in\[3\] I *L 0.000e+00 *S 1.144e-03 1.144e-03 
X_in\[2\] I *L 0.000e+00 *S 1.144e-03 1.144e-03 
X_in\[1\] I *L 0.000e+00 *S 1.144e-03 1.144e-03 
X_in\[0\] I *L 0.000e+00 *S 1.144e-03 1.144e-03 
P_in\[7\] I *L 0.000e+00 *S 4.498e-03 4.498e-03 
P_in\[6\] I *L 0.000e+00 *S 4.492e-03 4.492e-03 
P_in\[5\] I *L 0.000e+00 *S 4.492e-03 4.492e-03 
P_in\[4\] I *L 0.000e+00 *S 4.492e-03 4.492e-03 
P_in\[3\] I *L 0.000e+00 *S 4.492e-03 4.492e-03 
P_in\[2\] I *L 0.000e+00 *S 4.492e-03 4.492e-03 
P_in\[1\] I *L 0.000e+00 *S 4.492e-03 4.492e-03 
P_in\[0\] I *L 0.000e+00 *S 4.492e-03 4.492e-03 
cycle_cnt\[2\] I *L 0.000e+00 *S 3.832e-03 3.832e-03 
cycle_cnt\[1\] I *L 0.000e+00 *S 4.707e-03 4.707e-03 
cycle_cnt\[0\] I *L 0.000e+00 *S 8.684e-03 8.684e-03 
out\[7\] O *L 1.000e+00 *S 5.876e-01 4.054e-01 
out\[6\] O *L 1.000e+00 *S 5.876e-01 4.054e-01 
out\[5\] O *L 1.000e+00 *S 5.876e-01 4.054e-01 
out\[4\] O *L 1.000e+00 *S 5.876e-01 4.054e-01 
out\[3\] O *L 1.000e+00 *S 5.876e-01 4.054e-01 
out\[2\] O *L 1.000e+00 *S 5.876e-01 4.054e-01 
out\[1\] O *L 1.000e+00 *S 5.876e-01 4.054e-01 
out\[0\] O *L 1.000e+00 *S 5.876e-01 4.054e-01 

*R_NET clk 1.156e+00
*DRIVER clk
*CELL NULL
*C2_R1_C1 5.780e-01 5.553e-04 5.780e-01 
*LOADS
*RC P_reg\[2\]\[0\]:CK 6.681e-08
*RC U635:A 6.864e-08
*RC U636:A 6.864e-08
*RC XCP_reg\[0\]:CK 6.681e-08
*RC XCP_reg\[1\]:CK 6.681e-08
*RC XCP_reg\[2\]:CK 6.681e-08
*RC XCP_reg\[3\]:CK 6.681e-08
*RC XCP_reg\[4\]:CK 6.681e-08
*RC XCP_reg\[5\]:CK 6.681e-08
*RC XCP_reg\[6\]:CK 6.681e-08
*RC XCP_reg\[7\]:CK 6.681e-08
*RC P_reg\[2\]\[1\]:CK 6.681e-08
*RC P_reg\[2\]\[2\]:CK 6.681e-08
*RC P_reg\[2\]\[3\]:CK 6.681e-08
*RC P_reg\[2\]\[4\]:CK 6.681e-08
*RC P_reg\[2\]\[5\]:CK 6.681e-08
*RC P_reg\[2\]\[6\]:CK 6.681e-08
*RC P_reg\[2\]\[7\]:CK 6.681e-08
*RC P_reg\[1\]\[0\]:CK 6.681e-08
*RC P_reg\[1\]\[1\]:CK 6.681e-08
*RC P_reg\[1\]\[2\]:CK 6.681e-08
*RC P_reg\[1\]\[3\]:CK 6.681e-08
*RC P_reg\[1\]\[4\]:CK 6.681e-08
*RC P_reg\[1\]\[5\]:CK 6.681e-08
*RC P_reg\[1\]\[6\]:CK 6.681e-08
*RC P_reg\[1\]\[7\]:CK 6.681e-08
*RC P_reg\[0\]\[0\]:CK 6.681e-08
*RC P_reg\[0\]\[1\]:CK 6.681e-08
*RC P_reg\[0\]\[2\]:CK 6.681e-08
*RC P_reg\[0\]\[3\]:CK 6.681e-08
*RC P_reg\[0\]\[4\]:CK 6.681e-08
*RC P_reg\[0\]\[5\]:CK 6.681e-08
*RC P_reg\[0\]\[6\]:CK 6.681e-08
*RC P_reg\[0\]\[7\]:CK 6.681e-08
*RC P_reg\[3\]\[0\]:CK 6.681e-08
*RC P_reg\[3\]\[1\]:CK 6.681e-08
*RC P_reg\[3\]\[2\]:CK 6.681e-08
*RC P_reg\[3\]\[3\]:CK 6.681e-08
*RC P_reg\[3\]\[4\]:CK 6.681e-08
*RC P_reg\[3\]\[5\]:CK 6.681e-08
*RC P_reg\[3\]\[6\]:CK 6.681e-08
*RC P_reg\[3\]\[7\]:CK 6.681e-08
*RC XC_reg\[0\]\[1\]:CK 6.681e-08
*RC XC_reg\[3\]\[0\]:CK 6.681e-08
*RC XC_reg\[3\]\[2\]:CK 6.681e-08
*RC XC_reg\[3\]\[3\]:CK 6.681e-08
*RC XC_reg\[3\]\[4\]:CK 6.681e-08
*RC XC_reg\[3\]\[5\]:CK 6.681e-08
*RC XC_reg\[3\]\[6\]:CK 6.681e-08
*RC XC_reg\[3\]\[7\]:CK 6.681e-08
*RC XC_reg\[3\]\[8\]:CK 6.681e-08
*RC XC_reg\[3\]\[9\]:CK 6.681e-08
*RC XC_reg\[3\]\[10\]:CK 6.681e-08
*RC X_reg\[2\]\[0\]:CK 6.681e-08
*RC X_reg\[2\]\[1\]:CK 6.681e-08
*RC X_reg\[2\]\[2\]:CK 6.681e-08
*RC X_reg\[2\]\[3\]:CK 6.681e-08
*RC X_reg\[2\]\[4\]:CK 6.681e-08
*RC X_reg\[2\]\[5\]:CK 6.681e-08
*RC X_reg\[2\]\[6\]:CK 6.681e-08
*RC X_reg\[2\]\[7\]:CK 6.681e-08
*RC X_reg\[1\]\[0\]:CK 6.681e-08
*RC X_reg\[1\]\[1\]:CK 6.681e-08
*RC X_reg\[1\]\[2\]:CK 6.681e-08
*RC X_reg\[1\]\[3\]:CK 6.681e-08
*RC X_reg\[1\]\[4\]:CK 6.681e-08
*RC X_reg\[1\]\[5\]:CK 6.681e-08
*RC X_reg\[1\]\[6\]:CK 6.681e-08
*RC X_reg\[1\]\[7\]:CK 6.681e-08
*RC X_reg\[0\]\[0\]:CK 6.681e-08
*RC X_reg\[0\]\[1\]:CK 6.681e-08
*RC X_reg\[0\]\[2\]:CK 6.681e-08
*RC X_reg\[0\]\[3\]:CK 6.681e-08
*RC X_reg\[0\]\[4\]:CK 6.681e-08
*RC X_reg\[0\]\[5\]:CK 6.681e-08
*RC X_reg\[0\]\[6\]:CK 6.681e-08
*RC X_reg\[0\]\[7\]:CK 6.681e-08
*RC XC_reg\[0\]\[0\]:CK 6.681e-08
*RC XC_reg\[3\]\[1\]:CK 6.681e-08
*RC XC_reg\[1\]\[7\]:CK 6.681e-08
*RC XC_reg\[1\]\[8\]:CK 6.681e-08
*RC XC_reg\[1\]\[9\]:CK 6.681e-08
*RC XC_reg\[1\]\[10\]:CK 6.681e-08
*RC XC_reg\[1\]\[11\]:CK 6.681e-08
*RC XC_reg\[1\]\[12\]:CK 6.681e-08
*RC XC_reg\[1\]\[13\]:CK 6.681e-08
*RC XC_reg\[0\]\[2\]:CK 6.681e-08
*RC XC_reg\[0\]\[3\]:CK 6.681e-08
*RC XC_reg\[0\]\[4\]:CK 6.681e-08
*RC XC_reg\[0\]\[5\]:CK 6.681e-08
*RC XC_reg\[0\]\[6\]:CK 6.681e-08
*RC XC_reg\[0\]\[7\]:CK 6.681e-08
*RC XC_reg\[0\]\[8\]:CK 6.681e-08
*RC XC_reg\[0\]\[9\]:CK 6.681e-08
*RC XC_reg\[0\]\[10\]:CK 6.681e-08
*RC XC_reg\[0\]\[11\]:CK 6.681e-08
*RC XC_reg\[0\]\[12\]:CK 6.681e-08
*RC XC_reg\[0\]\[13\]:CK 6.681e-08
*END

*R_NET rst 1.868e-01
*DRIVER rst
*CELL NULL
*C2_R1_C1 9.341e-02 5.667e-05 9.341e-02 
*LOADS
*RC U985:B 6.479e-08
*RC U987:A 6.496e-08
*RC U1078:B 1.148e-07
*RC U1079:A 1.174e-07
*RC U1111:B 1.148e-07
*RC U1112:A 1.174e-07
*RC U1143:B 1.148e-07
*RC U1144:A 1.174e-07
*RC U1174:B 1.148e-07
*RC U1175:A 1.174e-07
*END

*R_NET X_in\[23\] 1.144e-02
*DRIVER X_in\[23\]
*CELL NULL
*C2_R1_C1 5.718e-03 5.667e-06 5.718e-03 
*LOADS
*RC U1142:A1 6.480e-08
*END

*R_NET X_in\[22\] 1.144e-02
*DRIVER X_in\[22\]
*CELL NULL
*C2_R1_C1 5.718e-03 5.667e-06 5.718e-03 
*LOADS
*RC U1146:A1 6.480e-08
*END

*R_NET X_in\[21\] 1.144e-02
*DRIVER X_in\[21\]
*CELL NULL
*C2_R1_C1 5.718e-03 5.667e-06 5.718e-03 
*LOADS
*RC U1148:A1 6.480e-08
*END

*R_NET X_in\[20\] 1.144e-02
*DRIVER X_in\[20\]
*CELL NULL
*C2_R1_C1 5.718e-03 5.667e-06 5.718e-03 
*LOADS
*RC U1150:A1 6.480e-08
*END

*R_NET X_in\[19\] 1.144e-02
*DRIVER X_in\[19\]
*CELL NULL
*C2_R1_C1 5.718e-03 5.667e-06 5.718e-03 
*LOADS
*RC U1152:A1 6.480e-08
*END

*R_NET X_in\[18\] 1.144e-02
*DRIVER X_in\[18\]
*CELL NULL
*C2_R1_C1 5.718e-03 5.667e-06 5.718e-03 
*LOADS
*RC U1154:A1 6.480e-08
*END

*R_NET X_in\[17\] 1.144e-02
*DRIVER X_in\[17\]
*CELL NULL
*C2_R1_C1 5.718e-03 5.667e-06 5.718e-03 
*LOADS
*RC U1156:A1 6.480e-08
*END

*R_NET X_in\[16\] 1.144e-02
*DRIVER X_in\[16\]
*CELL NULL
*C2_R1_C1 5.718e-03 5.667e-06 5.718e-03 
*LOADS
*RC U1158:A1 6.480e-08
*END

*R_NET X_in\[15\] 1.144e-02
*DRIVER X_in\[15\]
*CELL NULL
*C2_R1_C1 5.718e-03 5.667e-06 5.718e-03 
*LOADS
*RC U1110:A1 6.480e-08
*END

*R_NET X_in\[14\] 1.144e-02
*DRIVER X_in\[14\]
*CELL NULL
*C2_R1_C1 5.718e-03 5.667e-06 5.718e-03 
*LOADS
*RC U1114:A1 6.480e-08
*END

*R_NET X_in\[13\] 1.144e-02
*DRIVER X_in\[13\]
*CELL NULL
*C2_R1_C1 5.718e-03 5.667e-06 5.718e-03 
*LOADS
*RC U1116:A1 6.480e-08
*END

*R_NET X_in\[12\] 1.144e-02
*DRIVER X_in\[12\]
*CELL NULL
*C2_R1_C1 5.718e-03 5.667e-06 5.718e-03 
*LOADS
*RC U1118:A1 6.480e-08
*END

*R_NET X_in\[11\] 1.144e-02
*DRIVER X_in\[11\]
*CELL NULL
*C2_R1_C1 5.718e-03 5.667e-06 5.718e-03 
*LOADS
*RC U1120:A1 6.480e-08
*END

*R_NET X_in\[10\] 1.144e-02
*DRIVER X_in\[10\]
*CELL NULL
*C2_R1_C1 5.718e-03 5.667e-06 5.718e-03 
*LOADS
*RC U1122:A1 6.480e-08
*END

*R_NET X_in\[9\] 1.144e-02
*DRIVER X_in\[9\]
*CELL NULL
*C2_R1_C1 5.718e-03 5.667e-06 5.718e-03 
*LOADS
*RC U1124:A1 6.480e-08
*END

*R_NET X_in\[8\] 1.144e-02
*DRIVER X_in\[8\]
*CELL NULL
*C2_R1_C1 5.718e-03 5.667e-06 5.718e-03 
*LOADS
*RC U1126:A1 6.480e-08
*END

*R_NET X_in\[7\] 1.144e-02
*DRIVER X_in\[7\]
*CELL NULL
*C2_R1_C1 5.718e-03 5.667e-06 5.718e-03 
*LOADS
*RC U1077:A1 6.480e-08
*END

*R_NET X_in\[6\] 1.144e-02
*DRIVER X_in\[6\]
*CELL NULL
*C2_R1_C1 5.718e-03 5.667e-06 5.718e-03 
*LOADS
*RC U1081:A1 6.480e-08
*END

*R_NET X_in\[5\] 1.144e-02
*DRIVER X_in\[5\]
*CELL NULL
*C2_R1_C1 5.718e-03 5.667e-06 5.718e-03 
*LOADS
*RC U1084:A1 6.480e-08
*END

*R_NET X_in\[4\] 1.144e-02
*DRIVER X_in\[4\]
*CELL NULL
*C2_R1_C1 5.718e-03 5.667e-06 5.718e-03 
*LOADS
*RC U1086:A1 6.480e-08
*END

*R_NET X_in\[3\] 1.144e-02
*DRIVER X_in\[3\]
*CELL NULL
*C2_R1_C1 5.718e-03 5.667e-06 5.718e-03 
*LOADS
*RC U1088:A1 6.480e-08
*END

*R_NET X_in\[2\] 1.144e-02
*DRIVER X_in\[2\]
*CELL NULL
*C2_R1_C1 5.718e-03 5.667e-06 5.718e-03 
*LOADS
*RC U1090:A1 6.480e-08
*END

*R_NET X_in\[1\] 1.144e-02
*DRIVER X_in\[1\]
*CELL NULL
*C2_R1_C1 5.718e-03 5.667e-06 5.718e-03 
*LOADS
*RC U1092:A1 6.480e-08
*END

*R_NET X_in\[0\] 1.144e-02
*DRIVER X_in\[0\]
*CELL NULL
*C2_R1_C1 5.718e-03 5.667e-06 5.718e-03 
*LOADS
*RC U1094:A1 6.480e-08
*END

*R_NET P_in\[7\] 4.498e-02
*DRIVER P_in\[7\]
*CELL NULL
*C2_R1_C1 2.249e-02 2.267e-05 2.249e-02 
*LOADS
*RC U1080:B0 6.372e-08
*RC U1113:B0 6.372e-08
*RC U1145:B0 6.372e-08
*RC U1176:B0 6.372e-08
*END

*R_NET P_in\[6\] 4.492e-02
*DRIVER P_in\[6\]
*CELL NULL
*C2_R1_C1 2.246e-02 2.267e-05 2.246e-02 
*LOADS
*RC U1082:B1 6.338e-08
*RC U1115:B0 6.372e-08
*RC U1147:B0 6.372e-08
*RC U1177:B0 6.372e-08
*END

*R_NET P_in\[5\] 4.492e-02
*DRIVER P_in\[5\]
*CELL NULL
*C2_R1_C1 2.246e-02 2.267e-05 2.246e-02 
*LOADS
*RC U1085:B1 6.338e-08
*RC U1117:B0 6.372e-08
*RC U1149:B0 6.372e-08
*RC U1178:B0 6.372e-08
*END

*R_NET P_in\[4\] 4.492e-02
*DRIVER P_in\[4\]
*CELL NULL
*C2_R1_C1 2.246e-02 2.267e-05 2.246e-02 
*LOADS
*RC U1087:B1 6.338e-08
*RC U1119:B0 6.372e-08
*RC U1151:B0 6.372e-08
*RC U1179:B0 6.372e-08
*END

*R_NET P_in\[3\] 4.492e-02
*DRIVER P_in\[3\]
*CELL NULL
*C2_R1_C1 2.246e-02 2.267e-05 2.246e-02 
*LOADS
*RC U1089:B1 6.338e-08
*RC U1121:B0 6.372e-08
*RC U1153:B0 6.372e-08
*RC U1180:B0 6.372e-08
*END

*R_NET P_in\[2\] 4.492e-02
*DRIVER P_in\[2\]
*CELL NULL
*C2_R1_C1 2.246e-02 2.267e-05 2.246e-02 
*LOADS
*RC U1091:B1 6.338e-08
*RC U1123:B0 6.372e-08
*RC U1155:B0 6.372e-08
*RC U1181:B0 6.372e-08
*END

*R_NET P_in\[1\] 4.492e-02
*DRIVER P_in\[1\]
*CELL NULL
*C2_R1_C1 2.246e-02 2.267e-05 2.246e-02 
*LOADS
*RC U1093:B1 6.338e-08
*RC U1125:B0 6.372e-08
*RC U1157:B0 6.372e-08
*RC U1182:B0 6.372e-08
*END

*R_NET P_in\[0\] 4.492e-02
*DRIVER P_in\[0\]
*CELL NULL
*C2_R1_C1 2.246e-02 2.267e-05 2.246e-02 
*LOADS
*RC U1095:B1 6.338e-08
*RC U1127:B0 6.372e-08
*RC U1159:B0 6.372e-08
*RC U1183:B0 6.372e-08
*END

*R_NET cycle_cnt\[2\] 3.832e-02
*DRIVER cycle_cnt\[2\]
*CELL NULL
*C2_R1_C1 1.916e-02 1.700e-05 1.916e-02 
*LOADS
*RC U271:A 8.773e-08
*RC U272:B0 6.448e-08
*RC U291:A 6.496e-08
*END

*R_NET cycle_cnt\[1\] 4.707e-02
*DRIVER cycle_cnt\[1\]
*CELL NULL
*C2_R1_C1 2.354e-02 2.267e-05 2.354e-02 
*LOADS
*RC U272:A1 6.398e-08
*RC U290:A 6.496e-08
*RC U295:A 7.345e-08
*RC U297:A 6.435e-08
*END

*R_NET cycle_cnt\[0\] 8.684e-02
*DRIVER cycle_cnt\[0\]
*CELL NULL
*C2_R1_C1 4.342e-02 3.400e-05 4.342e-02 
*LOADS
*RC U271:B 9.110e-08
*RC U272:A0 6.415e-08
*RC U293:A 1.174e-07
*RC U295:B 7.393e-08
*RC U296:AN 8.050e-08
*RC U297:B 6.503e-08
*END

*R_NET n758 1.226e-02
*DRIVER XCP_reg\[7\]:Q
*CELL DFFQX1
*C2_R1_C1 6.128e-03 5.667e-06 6.128e-03 
*LOADS
*RC U275:A 6.945e-08
*END

*R_NET n759 1.226e-02
*DRIVER XCP_reg\[6\]:Q
*CELL DFFQX1
*C2_R1_C1 6.128e-03 5.667e-06 6.128e-03 
*LOADS
*RC U277:A 6.945e-08
*END

*R_NET n760 1.226e-02
*DRIVER XCP_reg\[5\]:Q
*CELL DFFQX1
*C2_R1_C1 6.128e-03 5.667e-06 6.128e-03 
*LOADS
*RC U279:A 6.945e-08
*END

*R_NET n761 1.226e-02
*DRIVER XCP_reg\[4\]:Q
*CELL DFFQX1
*C2_R1_C1 6.128e-03 5.667e-06 6.128e-03 
*LOADS
*RC U281:A 6.945e-08
*END

*R_NET n762 1.226e-02
*DRIVER XCP_reg\[3\]:Q
*CELL DFFQX1
*C2_R1_C1 6.128e-03 5.667e-06 6.128e-03 
*LOADS
*RC U283:A 6.945e-08
*END

*R_NET n763 1.226e-02
*DRIVER XCP_reg\[2\]:Q
*CELL DFFQX1
*C2_R1_C1 6.128e-03 5.667e-06 6.128e-03 
*LOADS
*RC U285:A 6.945e-08
*END

*R_NET n764 1.226e-02
*DRIVER XCP_reg\[1\]:Q
*CELL DFFQX1
*C2_R1_C1 6.128e-03 5.667e-06 6.128e-03 
*LOADS
*RC U287:A 6.945e-08
*END

*R_NET n765 1.226e-02
*DRIVER XCP_reg\[0\]:Q
*CELL DFFQX1
*C2_R1_C1 6.128e-03 5.667e-06 6.128e-03 
*LOADS
*RC U289:A 6.945e-08
*END

*R_NET adder1\[21\] 1.528e-02
*DRIVER adder1_reg\[21\]:Q
*CELL TLATX1
*C2_R1_C1 7.640e-03 5.667e-06 7.640e-03 
*LOADS
*RC U184:A 8.658e-08
*END

*R_NET adder1\[20\] 1.153e-02
*DRIVER adder1_reg\[20\]:Q
*CELL TLATX1
*C2_R1_C1 5.767e-03 5.667e-06 5.767e-03 
*LOADS
*RC U995:A 6.536e-08
*END

*R_NET adder1\[19\] 2.399e-02
*DRIVER adder1_reg\[19\]:Q
*CELL TLATX1
*C2_R1_C1 1.199e-02 1.133e-05 1.199e-02 
*LOADS
*RC U996:A 6.818e-08
*RC U997:B0 6.776e-08
*END

*R_NET adder1\[18\] 2.371e-02
*DRIVER adder1_reg\[18\]:Q
*CELL TLATX1
*C2_R1_C1 1.186e-02 1.133e-05 1.186e-02 
*LOADS
*RC U995:D 6.607e-08
*RC U996:D 6.829e-08
*END

*R_NET adder1\[17\] 2.367e-02
*DRIVER adder1_reg\[17\]:Q
*CELL TLATX1
*C2_R1_C1 1.183e-02 1.133e-05 1.183e-02 
*LOADS
*RC U995:C 6.573e-08
*RC U996:C 6.839e-08
*END

*R_NET adder1\[16\] 2.310e-02
*DRIVER adder1_reg\[16\]:Q
*CELL TLATX1
*C2_R1_C1 1.155e-02 1.133e-05 1.155e-02 
*LOADS
*RC U994:AN 6.297e-08
*RC U1019:A0 6.793e-08
*END

*R_NET adder1\[15\] 2.340e-02
*DRIVER adder1_reg\[15\]:Q
*CELL TLATX1
*C2_R1_C1 1.170e-02 1.133e-05 1.170e-02 
*LOADS
*RC U993:B 6.524e-08
*RC U1015:A1 6.733e-08
*END

*R_NET adder1\[14\] 2.299e-02
*DRIVER adder1_reg\[14\]:Q
*CELL TLATX1
*C2_R1_C1 1.150e-02 1.133e-05 1.150e-02 
*LOADS
*RC U992:AN 6.297e-08
*RC U1013:A1 6.733e-08
*END

*R_NET adder1\[13\] 6.958e-02
*DRIVER adder1_reg\[13\]:Q
*CELL TLATX1
*C2_R1_C1 3.479e-02 3.400e-05 3.479e-02 
*LOADS
*RC U186:B 6.524e-08
*RC U1009:A1 6.733e-08
*RC U1096:A0 6.542e-08
*RC U1128:A0 6.542e-08
*RC U1160:A0 6.542e-08
*RC U1184:A0 6.542e-08
*END

*R_NET adder1\[12\] 5.806e-02
*DRIVER adder1_reg\[12\]:Q
*CELL TLATX1
*C2_R1_C1 2.903e-02 2.833e-05 2.903e-02 
*LOADS
*RC U1006:A1 6.733e-08
*RC U1097:A0 6.542e-08
*RC U1129:A0 6.542e-08
*RC U1161:A0 6.542e-08
*RC U1185:A0 6.542e-08
*END

*R_NET adder1\[11\] 6.958e-02
*DRIVER adder1_reg\[11\]:Q
*CELL TLATX1
*C2_R1_C1 3.479e-02 3.400e-05 3.479e-02 
*LOADS
*RC U188:B 6.524e-08
*RC U1003:A1 6.733e-08
*RC U1098:A0 6.542e-08
*RC U1130:A0 6.542e-08
*RC U1162:A0 6.542e-08
*RC U1186:A0 6.542e-08
*END

*R_NET adder1\[10\] 5.806e-02
*DRIVER adder1_reg\[10\]:Q
*CELL TLATX1
*C2_R1_C1 2.903e-02 2.833e-05 2.903e-02 
*LOADS
*RC U1001:A1 6.733e-08
*RC U1099:A0 6.542e-08
*RC U1131:A0 6.542e-08
*RC U1163:A0 6.542e-08
*RC U1187:A0 6.542e-08
*END

*R_NET adder1\[9\] 6.958e-02
*DRIVER adder1_reg\[9\]:Q
*CELL TLATX1
*C2_R1_C1 3.479e-02 3.400e-05 3.479e-02 
*LOADS
*RC U189:B 6.524e-08
*RC U998:A1 6.733e-08
*RC U1100:A0 6.542e-08
*RC U1132:A0 6.542e-08
*RC U1164:A0 6.542e-08
*RC U1188:A0 6.542e-08
*END

*R_NET adder1\[8\] 4.618e-02
*DRIVER adder1_reg\[8\]:Q
*CELL TLATX1
*C2_R1_C1 2.309e-02 2.267e-05 2.309e-02 
*LOADS
*RC U1101:A0 6.542e-08
*RC U1133:A0 6.542e-08
*RC U1165:A0 6.542e-08
*RC U1189:A0 6.542e-08
*END

*R_NET adder1\[7\] 4.618e-02
*DRIVER adder1_reg\[7\]:Q
*CELL TLATX1
*C2_R1_C1 2.309e-02 2.267e-05 2.309e-02 
*LOADS
*RC U1102:A0 6.542e-08
*RC U1134:A0 6.542e-08
*RC U1166:A0 6.542e-08
*RC U1190:A0 6.542e-08
*END

*R_NET adder1\[6\] 5.807e-02
*DRIVER adder1_reg\[6\]:Q
*CELL TLATX1
*C2_R1_C1 2.904e-02 2.833e-05 2.904e-02 
*LOADS
*RC U190:A 6.738e-08
*RC U1103:A0 6.542e-08
*RC U1135:A0 6.542e-08
*RC U1167:A0 6.542e-08
*RC U1191:A0 6.542e-08
*END

*R_NET adder1\[5\] 5.815e-02
*DRIVER adder1_reg\[5\]:Q
*CELL TLATX1
*C2_R1_C1 2.907e-02 2.833e-05 2.907e-02 
*LOADS
*RC U191:C 6.781e-08
*RC U1104:A0 6.542e-08
*RC U1136:A0 6.542e-08
*RC U1168:A0 6.542e-08
*RC U1192:A0 6.542e-08
*END

*R_NET adder1\[4\] 5.789e-02
*DRIVER adder1_reg\[4\]:Q
*CELL TLATX1
*C2_R1_C1 2.894e-02 2.833e-05 2.894e-02 
*LOADS
*RC U191:D 6.635e-08
*RC U1105:A0 6.542e-08
*RC U1137:A0 6.542e-08
*RC U1169:A0 6.542e-08
*RC U1193:A0 6.542e-08
*END

*R_NET adder1\[3\] 5.828e-02
*DRIVER adder1_reg\[3\]:Q
*CELL TLATX1
*C2_R1_C1 2.914e-02 2.833e-05 2.914e-02 
*LOADS
*RC U191:A 6.857e-08
*RC U1106:A0 6.542e-08
*RC U1138:A0 6.542e-08
*RC U1170:A0 6.542e-08
*RC U1194:A0 6.542e-08
*END

*R_NET adder1\[2\] 5.815e-02
*DRIVER adder1_reg\[2\]:Q
*CELL TLATX1
*C2_R1_C1 2.907e-02 2.833e-05 2.907e-02 
*LOADS
*RC U191:B 6.782e-08
*RC U1107:A0 6.542e-08
*RC U1139:A0 6.542e-08
*RC U1171:A0 6.542e-08
*RC U1195:A0 6.542e-08
*END

*R_NET adder1\[1\] 5.797e-02
*DRIVER adder1_reg\[1\]:Q
*CELL TLATX1
*C2_R1_C1 2.899e-02 2.833e-05 2.899e-02 
*LOADS
*RC U190:B 6.682e-08
*RC U1108:A0 6.542e-08
*RC U1140:A0 6.542e-08
*RC U1172:A0 6.542e-08
*RC U1196:A0 6.542e-08
*END

*R_NET adder1\[0\] 5.781e-02
*DRIVER adder1_reg\[0\]:Q
*CELL TLATX1
*C2_R1_C1 2.891e-02 2.833e-05 2.891e-02 
*LOADS
*RC U190:C 6.592e-08
*RC U1109:A0 6.542e-08
*RC U1141:A0 6.542e-08
*RC U1173:A0 6.542e-08
*RC U1197:A0 6.542e-08
*END

*R_NET X\[0\]\[7\] 2.249e-02
*DRIVER X_reg\[0\]\[7\]:Q
*CELL DFFQX1
*C2_R1_C1 1.125e-02 1.133e-05 1.125e-02 
*LOADS
*RC U373:B0 6.372e-08
*RC U1077:B0 6.372e-08
*END

*R_NET X\[0\]\[6\] 2.249e-02
*DRIVER X_reg\[0\]\[6\]:Q
*CELL DFFQX1
*C2_R1_C1 1.125e-02 1.133e-05 1.125e-02 
*LOADS
*RC U372:B0 6.372e-08
*RC U1081:B0 6.372e-08
*END

*R_NET X\[0\]\[5\] 2.249e-02
*DRIVER X_reg\[0\]\[5\]:Q
*CELL DFFQX1
*C2_R1_C1 1.125e-02 1.133e-05 1.125e-02 
*LOADS
*RC U321:B0 6.372e-08
*RC U1084:B0 6.372e-08
*END

*R_NET X\[0\]\[4\] 2.249e-02
*DRIVER X_reg\[0\]\[4\]:Q
*CELL DFFQX1
*C2_R1_C1 1.125e-02 1.133e-05 1.125e-02 
*LOADS
*RC U320:B0 6.372e-08
*RC U1086:B0 6.372e-08
*END

*R_NET X\[0\]\[3\] 2.249e-02
*DRIVER X_reg\[0\]\[3\]:Q
*CELL DFFQX1
*C2_R1_C1 1.125e-02 1.133e-05 1.125e-02 
*LOADS
*RC U323:B0 6.372e-08
*RC U1088:B0 6.372e-08
*END

*R_NET X\[0\]\[2\] 2.249e-02
*DRIVER X_reg\[0\]\[2\]:Q
*CELL DFFQX1
*C2_R1_C1 1.125e-02 1.133e-05 1.125e-02 
*LOADS
*RC U490:B0 6.372e-08
*RC U1090:B0 6.372e-08
*END

*R_NET X\[0\]\[1\] 2.249e-02
*DRIVER X_reg\[0\]\[1\]:Q
*CELL DFFQX1
*C2_R1_C1 1.125e-02 1.133e-05 1.125e-02 
*LOADS
*RC U334:B0 6.372e-08
*RC U1092:B0 6.372e-08
*END

*R_NET X\[0\]\[0\] 2.313e-02
*DRIVER X_reg\[0\]\[0\]:Q
*CELL DFFQX1
*C2_R1_C1 1.157e-02 1.133e-05 1.157e-02 
*LOADS
*RC U181:B0 6.737e-08
*RC U1094:B0 6.372e-08
*END

*R_NET X\[1\]\[7\] 2.249e-02
*DRIVER X_reg\[1\]\[7\]:Q
*CELL DFFQX1
*C2_R1_C1 1.125e-02 1.133e-05 1.125e-02 
*LOADS
*RC U406:B0 6.372e-08
*RC U1110:B0 6.372e-08
*END

*R_NET X\[1\]\[6\] 2.249e-02
*DRIVER X_reg\[1\]\[6\]:Q
*CELL DFFQX1
*C2_R1_C1 1.125e-02 1.133e-05 1.125e-02 
*LOADS
*RC U405:B0 6.372e-08
*RC U1114:B0 6.372e-08
*END

*R_NET X\[1\]\[5\] 2.249e-02
*DRIVER X_reg\[1\]\[5\]:Q
*CELL DFFQX1
*C2_R1_C1 1.125e-02 1.133e-05 1.125e-02 
*LOADS
*RC U408:B0 6.372e-08
*RC U1116:B0 6.372e-08
*END

*R_NET X\[1\]\[4\] 2.249e-02
*DRIVER X_reg\[1\]\[4\]:Q
*CELL DFFQX1
*C2_R1_C1 1.125e-02 1.133e-05 1.125e-02 
*LOADS
*RC U443:B0 6.372e-08
*RC U1118:B0 6.372e-08
*END

*R_NET X\[1\]\[3\] 2.249e-02
*DRIVER X_reg\[1\]\[3\]:Q
*CELL DFFQX1
*C2_R1_C1 1.125e-02 1.133e-05 1.125e-02 
*LOADS
*RC U445:B0 6.372e-08
*RC U1120:B0 6.372e-08
*END

*R_NET X\[1\]\[2\] 2.249e-02
*DRIVER X_reg\[1\]\[2\]:Q
*CELL DFFQX1
*C2_R1_C1 1.125e-02 1.133e-05 1.125e-02 
*LOADS
*RC U475:B0 6.372e-08
*RC U1122:B0 6.372e-08
*END

*R_NET X\[1\]\[1\] 2.249e-02
*DRIVER X_reg\[1\]\[1\]:Q
*CELL DFFQX1
*C2_R1_C1 1.125e-02 1.133e-05 1.125e-02 
*LOADS
*RC U298:B0 6.372e-08
*RC U1124:B0 6.372e-08
*END

*R_NET X\[1\]\[0\] 2.313e-02
*DRIVER X_reg\[1\]\[0\]:Q
*CELL DFFQX1
*C2_R1_C1 1.157e-02 1.133e-05 1.157e-02 
*LOADS
*RC U183:B0 6.737e-08
*RC U1126:B0 6.372e-08
*END

*R_NET X\[2\]\[7\] 2.249e-02
*DRIVER X_reg\[2\]\[7\]:Q
*CELL DFFQX1
*C2_R1_C1 1.125e-02 1.133e-05 1.125e-02 
*LOADS
*RC U430:B0 6.372e-08
*RC U1142:B0 6.372e-08
*END

*R_NET X\[2\]\[6\] 2.249e-02
*DRIVER X_reg\[2\]\[6\]:Q
*CELL DFFQX1
*C2_R1_C1 1.125e-02 1.133e-05 1.125e-02 
*LOADS
*RC U429:B0 6.372e-08
*RC U1146:B0 6.372e-08
*END

*R_NET X\[2\]\[5\] 2.249e-02
*DRIVER X_reg\[2\]\[5\]:Q
*CELL DFFQX1
*C2_R1_C1 1.125e-02 1.133e-05 1.125e-02 
*LOADS
*RC U384:B0 6.372e-08
*RC U1148:B0 6.372e-08
*END

*R_NET X\[2\]\[4\] 2.249e-02
*DRIVER X_reg\[2\]\[4\]:Q
*CELL DFFQX1
*C2_R1_C1 1.125e-02 1.133e-05 1.125e-02 
*LOADS
*RC U383:B0 6.372e-08
*RC U1150:B0 6.372e-08
*END

*R_NET X\[2\]\[3\] 2.249e-02
*DRIVER X_reg\[2\]\[3\]:Q
*CELL DFFQX1
*C2_R1_C1 1.125e-02 1.133e-05 1.125e-02 
*LOADS
*RC U359:B0 6.372e-08
*RC U1152:B0 6.372e-08
*END

*R_NET X\[2\]\[2\] 2.249e-02
*DRIVER X_reg\[2\]\[2\]:Q
*CELL DFFQX1
*C2_R1_C1 1.125e-02 1.133e-05 1.125e-02 
*LOADS
*RC U358:B0 6.372e-08
*RC U1154:B0 6.372e-08
*END

*R_NET X\[2\]\[1\] 2.249e-02
*DRIVER X_reg\[2\]\[1\]:Q
*CELL DFFQX1
*C2_R1_C1 1.125e-02 1.133e-05 1.125e-02 
*LOADS
*RC U361:B0 6.372e-08
*RC U1156:B0 6.372e-08
*END

*R_NET X\[2\]\[0\] 2.313e-02
*DRIVER X_reg\[2\]\[0\]:Q
*CELL DFFQX1
*C2_R1_C1 1.157e-02 1.133e-05 1.157e-02 
*LOADS
*RC U182:B0 6.737e-08
*RC U1158:B0 6.372e-08
*END

*R_NET XC\[0\]\[13\] 2.226e-02
*DRIVER XC_reg\[0\]\[13\]:Q
*CELL DFFQX1
*C2_R1_C1 1.113e-02 1.133e-05 1.113e-02 
*LOADS
*RC U331:A1N 6.276e-08
*RC U1096:B1 6.338e-08
*END

*R_NET XC\[0\]\[12\] 2.226e-02
*DRIVER XC_reg\[0\]\[12\]:Q
*CELL DFFQX1
*C2_R1_C1 1.113e-02 1.133e-05 1.113e-02 
*LOADS
*RC U328:A1N 6.276e-08
*RC U1097:B1 6.338e-08
*END

*R_NET XC\[0\]\[11\] 2.226e-02
*DRIVER XC_reg\[0\]\[11\]:Q
*CELL DFFQX1
*C2_R1_C1 1.113e-02 1.133e-05 1.113e-02 
*LOADS
*RC U455:A1N 6.276e-08
*RC U1098:B1 6.338e-08
*END

*R_NET XC\[0\]\[10\] 2.226e-02
*DRIVER XC_reg\[0\]\[10\]:Q
*CELL DFFQX1
*C2_R1_C1 1.113e-02 1.133e-05 1.113e-02 
*LOADS
*RC U453:A1N 6.276e-08
*RC U1099:B1 6.338e-08
*END

*R_NET XC\[0\]\[9\] 2.226e-02
*DRIVER XC_reg\[0\]\[9\]:Q
*CELL DFFQX1
*C2_R1_C1 1.113e-02 1.133e-05 1.113e-02 
*LOADS
*RC U512:A1N 6.276e-08
*RC U1100:B1 6.338e-08
*END

*R_NET XC\[0\]\[8\] 2.226e-02
*DRIVER XC_reg\[0\]\[8\]:Q
*CELL DFFQX1
*C2_R1_C1 1.113e-02 1.133e-05 1.113e-02 
*LOADS
*RC U510:A1N 6.276e-08
*RC U1101:B1 6.338e-08
*END

*R_NET XC\[0\]\[7\] 2.226e-02
*DRIVER XC_reg\[0\]\[7\]:Q
*CELL DFFQX1
*C2_R1_C1 1.113e-02 1.133e-05 1.113e-02 
*LOADS
*RC U526:A1N 6.276e-08
*RC U1102:B1 6.338e-08
*END

*R_NET XC\[0\]\[6\] 2.212e-02
*DRIVER XC_reg\[0\]\[6\]:Q
*CELL DFFQX1
*C2_R1_C1 1.106e-02 1.133e-05 1.106e-02 
*LOADS
*RC U536:A1N 6.199e-08
*RC U1103:B1 6.338e-08
*END

*R_NET XC\[0\]\[5\] 2.226e-02
*DRIVER XC_reg\[0\]\[5\]:Q
*CELL DFFQX1
*C2_R1_C1 1.113e-02 1.133e-05 1.113e-02 
*LOADS
*RC U547:A1N 6.276e-08
*RC U1104:B1 6.338e-08
*END

*R_NET XC\[0\]\[4\] 2.226e-02
*DRIVER XC_reg\[0\]\[4\]:Q
*CELL DFFQX1
*C2_R1_C1 1.113e-02 1.133e-05 1.113e-02 
*LOADS
*RC U340:A1N 6.276e-08
*RC U1105:B1 6.338e-08
*END

*R_NET XC\[0\]\[3\] 2.226e-02
*DRIVER XC_reg\[0\]\[3\]:Q
*CELL DFFQX1
*C2_R1_C1 1.113e-02 1.133e-05 1.113e-02 
*LOADS
*RC U338:A1N 6.276e-08
*RC U1106:B1 6.338e-08
*END

*R_NET XC\[0\]\[2\] 2.226e-02
*DRIVER XC_reg\[0\]\[2\]:Q
*CELL DFFQX1
*C2_R1_C1 1.113e-02 1.133e-05 1.113e-02 
*LOADS
*RC U594:A1N 6.276e-08
*RC U1107:B1 6.338e-08
*END

*R_NET XC\[0\]\[1\] 2.265e-02
*DRIVER XC_reg\[0\]\[1\]:Q
*CELL DFFQX1
*C2_R1_C1 1.132e-02 1.133e-05 1.132e-02 
*LOADS
*RC U591:A 6.496e-08
*RC U1108:B1 6.338e-08
*END

*R_NET XC\[0\]\[0\] 2.362e-02
*DRIVER XC_reg\[0\]\[0\]:Q
*CELL DFFQX1
*C2_R1_C1 1.181e-02 1.133e-05 1.181e-02 
*LOADS
*RC U212:B 7.014e-08
*RC U1109:B0 6.372e-08
*END

*R_NET XC\[1\]\[13\] 2.226e-02
*DRIVER XC_reg\[1\]\[13\]:Q
*CELL DFFQX1
*C2_R1_C1 1.113e-02 1.133e-05 1.113e-02 
*LOADS
*RC U344:A1N 6.276e-08
*RC U1128:B1 6.338e-08
*END

*R_NET XC\[1\]\[12\] 2.226e-02
*DRIVER XC_reg\[1\]\[12\]:Q
*CELL DFFQX1
*C2_R1_C1 1.113e-02 1.133e-05 1.113e-02 
*LOADS
*RC U416:A1N 6.276e-08
*RC U1129:B1 6.338e-08
*END

*R_NET XC\[1\]\[11\] 2.226e-02
*DRIVER XC_reg\[1\]\[11\]:Q
*CELL DFFQX1
*C2_R1_C1 1.113e-02 1.133e-05 1.113e-02 
*LOADS
*RC U413:A1N 6.276e-08
*RC U1130:B1 6.338e-08
*END

*R_NET XC\[1\]\[10\] 2.226e-02
*DRIVER XC_reg\[1\]\[10\]:Q
*CELL DFFQX1
*C2_R1_C1 1.113e-02 1.133e-05 1.113e-02 
*LOADS
*RC U462:A1N 6.276e-08
*RC U1131:B1 6.338e-08
*END

*R_NET XC\[1\]\[9\] 2.226e-02
*DRIVER XC_reg\[1\]\[9\]:Q
*CELL DFFQX1
*C2_R1_C1 1.113e-02 1.133e-05 1.113e-02 
*LOADS
*RC U460:A1N 6.276e-08
*RC U1132:B1 6.338e-08
*END

*R_NET XC\[1\]\[8\] 2.226e-02
*DRIVER XC_reg\[1\]\[8\]:Q
*CELL DFFQX1
*C2_R1_C1 1.113e-02 1.133e-05 1.113e-02 
*LOADS
*RC U305:A1N 6.276e-08
*RC U1133:B1 6.338e-08
*END

*R_NET XC\[1\]\[7\] 2.226e-02
*DRIVER XC_reg\[1\]\[7\]:Q
*CELL DFFQX1
*C2_R1_C1 1.113e-02 1.133e-05 1.113e-02 
*LOADS
*RC U303:A1N 6.276e-08
*RC U1134:B1 6.338e-08
*END

*R_NET XC\[1\]\[6\] 2.226e-02
*DRIVER XC_reg\[1\]\[6\]:Q
*CELL DFFQX1
*C2_R1_C1 1.113e-02 1.133e-05 1.113e-02 
*LOADS
*RC U601:A1N 6.276e-08
*RC U1135:B1 6.338e-08
*END

*R_NET XC\[1\]\[5\] 2.226e-02
*DRIVER XC_reg\[1\]\[5\]:Q
*CELL DFFQX1
*C2_R1_C1 1.113e-02 1.133e-05 1.113e-02 
*LOADS
*RC U599:A1N 6.276e-08
*RC U1136:B1 6.338e-08
*END

*R_NET XC\[1\]\[4\] 2.212e-02
*DRIVER XC_reg\[1\]\[4\]:Q
*CELL DFFQX1
*C2_R1_C1 1.106e-02 1.133e-05 1.106e-02 
*LOADS
*RC U609:A1N 6.199e-08
*RC U1137:B1 6.338e-08
*END

*R_NET XC\[1\]\[3\] 2.226e-02
*DRIVER XC_reg\[1\]\[3\]:Q
*CELL DFFQX1
*C2_R1_C1 1.113e-02 1.133e-05 1.113e-02 
*LOADS
*RC U560:A1N 6.276e-08
*RC U1138:B1 6.338e-08
*END

*R_NET XC\[1\]\[2\] 2.307e-02
*DRIVER XC_reg\[1\]\[2\]:Q
*CELL DFFQX1
*C2_R1_C1 1.154e-02 1.133e-05 1.154e-02 
*LOADS
*RC U267:A1 6.737e-08
*RC U1139:B1 6.338e-08
*END

*R_NET XC\[1\]\[1\] 2.265e-02
*DRIVER XC_reg\[1\]\[1\]:Q
*CELL DFFQX1
*C2_R1_C1 1.132e-02 1.133e-05 1.132e-02 
*LOADS
*RC U579:A 6.496e-08
*RC U1140:B1 6.338e-08
*END

*R_NET XC\[1\]\[0\] 2.212e-02
*DRIVER XC_reg\[1\]\[0\]:Q
*CELL DFFQX1
*C2_R1_C1 1.106e-02 1.133e-05 1.106e-02 
*LOADS
*RC U626:A1N 6.199e-08
*RC U1141:B1 6.338e-08
*END

*R_NET XC\[2\]\[13\] 2.240e-02
*DRIVER XC_reg\[2\]\[13\]:Q
*CELL DFFQX1
*C2_R1_C1 1.120e-02 1.133e-05 1.120e-02 
*LOADS
*RC U437:A1 6.356e-08
*RC U1160:B1 6.338e-08
*END

*R_NET XC\[2\]\[12\] 2.240e-02
*DRIVER XC_reg\[2\]\[12\]:Q
*CELL DFFQX1
*C2_R1_C1 1.120e-02 1.133e-05 1.120e-02 
*LOADS
*RC U393:A1 6.356e-08
*RC U1161:B1 6.338e-08
*END

*R_NET XC\[2\]\[11\] 2.240e-02
*DRIVER XC_reg\[2\]\[11\]:Q
*CELL DFFQX1
*C2_R1_C1 1.120e-02 1.133e-05 1.120e-02 
*LOADS
*RC U390:A1 6.356e-08
*RC U1162:B1 6.338e-08
*END

*R_NET XC\[2\]\[10\] 2.240e-02
*DRIVER XC_reg\[2\]\[10\]:Q
*CELL DFFQX1
*C2_R1_C1 1.120e-02 1.133e-05 1.120e-02 
*LOADS
*RC U487:A1 6.356e-08
*RC U1163:B1 6.338e-08
*END

*R_NET XC\[2\]\[9\] 2.240e-02
*DRIVER XC_reg\[2\]\[9\]:Q
*CELL DFFQX1
*C2_R1_C1 1.120e-02 1.133e-05 1.120e-02 
*LOADS
*RC U520:A1 6.356e-08
*RC U1164:B1 6.338e-08
*END

*R_NET XC\[2\]\[8\] 2.240e-02
*DRIVER XC_reg\[2\]\[8\]:Q
*CELL DFFQX1
*C2_R1_C1 1.120e-02 1.133e-05 1.120e-02 
*LOADS
*RC U518:A1 6.356e-08
*RC U1165:B1 6.338e-08
*END

*R_NET XC\[2\]\[7\] 2.240e-02
*DRIVER XC_reg\[2\]\[7\]:Q
*CELL DFFQX1
*C2_R1_C1 1.120e-02 1.133e-05 1.120e-02 
*LOADS
*RC U531:A1 6.356e-08
*RC U1166:B1 6.338e-08
*END

*R_NET XC\[2\]\[6\] 2.240e-02
*DRIVER XC_reg\[2\]\[6\]:Q
*CELL DFFQX1
*C2_R1_C1 1.120e-02 1.133e-05 1.120e-02 
*LOADS
*RC U542:A1 6.356e-08
*RC U1167:B1 6.338e-08
*END

*R_NET XC\[2\]\[5\] 2.240e-02
*DRIVER XC_reg\[2\]\[5\]:Q
*CELL DFFQX1
*C2_R1_C1 1.120e-02 1.133e-05 1.120e-02 
*LOADS
*RC U552:A1 6.356e-08
*RC U1168:B1 6.338e-08
*END

*R_NET XC\[2\]\[4\] 2.240e-02
*DRIVER XC_reg\[2\]\[4\]:Q
*CELL DFFQX1
*C2_R1_C1 1.120e-02 1.133e-05 1.120e-02 
*LOADS
*RC U369:A1 6.356e-08
*RC U1169:B1 6.338e-08
*END

*R_NET XC\[2\]\[3\] 2.240e-02
*DRIVER XC_reg\[2\]\[3\]:Q
*CELL DFFQX1
*C2_R1_C1 1.120e-02 1.133e-05 1.120e-02 
*LOADS
*RC U366:A1 6.356e-08
*RC U1170:B1 6.338e-08
*END

*R_NET XC\[2\]\[2\] 2.240e-02
*DRIVER XC_reg\[2\]\[2\]:Q
*CELL DFFQX1
*C2_R1_C1 1.120e-02 1.133e-05 1.120e-02 
*LOADS
*RC U569:A1 6.356e-08
*RC U1171:B1 6.338e-08
*END

*R_NET XC\[2\]\[1\] 2.240e-02
*DRIVER XC_reg\[2\]\[1\]:Q
*CELL DFFQX1
*C2_R1_C1 1.120e-02 1.133e-05 1.120e-02 
*LOADS
*RC U424:A1 6.356e-08
*RC U1172:B1 6.338e-08
*END

*R_NET XC\[2\]\[0\] 2.212e-02
*DRIVER XC_reg\[2\]\[0\]:Q
*CELL DFFQX1
*C2_R1_C1 1.106e-02 1.133e-05 1.106e-02 
*LOADS
*RC U421:A1N 6.199e-08
*RC U1173:B1 6.338e-08
*END

*R_NET XC\[3\]\[13\] 2.273e-02
*DRIVER XC_reg\[3\]\[13\]:Q
*CELL DFFQX1
*C2_R1_C1 1.136e-02 1.133e-05 1.136e-02 
*LOADS
*RC U355:B 6.541e-08
*RC U1184:B1 6.338e-08
*END

*R_NET XC\[3\]\[12\] 2.273e-02
*DRIVER XC_reg\[3\]\[12\]:Q
*CELL DFFQX1
*C2_R1_C1 1.136e-02 1.133e-05 1.136e-02 
*LOADS
*RC U650:B 6.541e-08
*RC U1185:B1 6.338e-08
*END

*R_NET XC\[3\]\[11\] 2.273e-02
*DRIVER XC_reg\[3\]\[11\]:Q
*CELL DFFQX1
*C2_R1_C1 1.136e-02 1.133e-05 1.136e-02 
*LOADS
*RC U648:B 6.541e-08
*RC U1186:B1 6.338e-08
*END

*R_NET XC\[3\]\[10\] 2.273e-02
*DRIVER XC_reg\[3\]\[10\]:Q
*CELL DFFQX1
*C2_R1_C1 1.136e-02 1.133e-05 1.136e-02 
*LOADS
*RC U744:B 6.541e-08
*RC U1187:B1 6.338e-08
*END

*R_NET XC\[3\]\[9\] 2.273e-02
*DRIVER XC_reg\[3\]\[9\]:Q
*CELL DFFQX1
*C2_R1_C1 1.136e-02 1.133e-05 1.136e-02 
*LOADS
*RC U718:B 6.541e-08
*RC U1188:B1 6.338e-08
*END

*R_NET XC\[3\]\[8\] 2.273e-02
*DRIVER XC_reg\[3\]\[8\]:Q
*CELL DFFQX1
*C2_R1_C1 1.136e-02 1.133e-05 1.136e-02 
*LOADS
*RC U504:B 6.541e-08
*RC U1189:B1 6.338e-08
*END

*R_NET XC\[3\]\[7\] 2.273e-02
*DRIVER XC_reg\[3\]\[7\]:Q
*CELL DFFQX1
*C2_R1_C1 1.136e-02 1.133e-05 1.136e-02 
*LOADS
*RC U502:B 6.541e-08
*RC U1190:B1 6.338e-08
*END

*R_NET XC\[3\]\[6\] 2.273e-02
*DRIVER XC_reg\[3\]\[6\]:Q
*CELL DFFQX1
*C2_R1_C1 1.136e-02 1.133e-05 1.136e-02 
*LOADS
*RC U675:B 6.541e-08
*RC U1191:B1 6.338e-08
*END

*R_NET XC\[3\]\[5\] 2.273e-02
*DRIVER XC_reg\[3\]\[5\]:Q
*CELL DFFQX1
*C2_R1_C1 1.136e-02 1.133e-05 1.136e-02 
*LOADS
*RC U673:B 6.541e-08
*RC U1192:B1 6.338e-08
*END
