*SPEF "IEEE 1481-1999"
*DESIGN "Bicubic"
*DATE "Fri Aug 22 17:00:28 2025"
*VENDOR "SYNOPSYS INC"
*PROGRAM "Synopsys Design Compiler cmos"
*VERSION "W-2024.09-SP2"
*DESIGN_FLOW "SYNTHESIS"
*DIVIDER /
*DELIMITER :
*BUS_DELIMITER []
*T_UNIT 1.0 NS
*C_UNIT 1.0 PF
*R_UNIT 1.0 KOHM
*L_UNIT 1.0 HENRY

*PORTS

CLK I *L 0.000e+00 *S 0.000e+00 0.000e+00 
RST I *L 0.000e+00 *S 1.450e-02 1.450e-02 
SW\[4\] I *L 0.000e+00 *S 3.934e-03 3.934e-03 
SW\[3\] I *L 0.000e+00 *S 4.278e-03 4.278e-03 
SW\[2\] I *L 0.000e+00 *S 4.279e-03 4.279e-03 
SW\[1\] I *L 0.000e+00 *S 3.891e-03 3.891e-03 
SW\[0\] I *L 0.000e+00 *S 3.748e-03 3.748e-03 
SH\[4\] I *L 0.000e+00 *S 2.541e-03 2.541e-03 
SH\[3\] I *L 0.000e+00 *S 4.324e-03 4.324e-03 
SH\[2\] I *L 0.000e+00 *S 2.896e-03 2.896e-03 
SH\[1\] I *L 0.000e+00 *S 4.740e-03 4.740e-03 
SH\[0\] I *L 0.000e+00 *S 6.120e-03 6.120e-03 
TW\[5\] I *L 0.000e+00 *S 1.426e-02 1.426e-02 
TW\[4\] I *L 0.000e+00 *S 1.305e-02 1.305e-02 
TW\[3\] I *L 0.000e+00 *S 1.064e-02 1.064e-02 
TW\[2\] I *L 0.000e+00 *S 1.365e-02 1.365e-02 
TW\[1\] I *L 0.000e+00 *S 1.812e-02 1.812e-02 
TW\[0\] I *L 0.000e+00 *S 1.552e-02 1.552e-02 
TH\[5\] I *L 0.000e+00 *S 1.012e-02 1.012e-02 
TH\[4\] I *L 0.000e+00 *S 1.044e-02 1.044e-02 
TH\[3\] I *L 0.000e+00 *S 1.044e-02 1.044e-02 
TH\[2\] I *L 0.000e+00 *S 1.019e-02 1.019e-02 
TH\[1\] I *L 0.000e+00 *S 1.441e-02 1.441e-02 
TH\[0\] I *L 0.000e+00 *S 1.397e-02 1.397e-02 
DONE O *L 1.000e+00 *S 5.747e-01 3.918e-01 

*R_NET CLK 9.519e-01
*DRIVER CLK
*CELL NULL
*C2_R1_C1 4.759e-01 4.590e-04 4.759e-01 
*LOADS
*RC sns_divider\/remainder_reg\[2\]:CK 6.681e-08
*RC cycle_cnt_lv2_reg\[1\]:CK 6.850e-08
*RC sns_divider\/remainder_reg\[6\]:CK 6.681e-08
*RC next_rem_v_reg\[5\]:CK 6.701e-08
*RC cycle_cnt_lv2_reg\[6\]:CK 6.850e-08
*RC mode_reg:CK 6.364e-08
*RC next_mode_reg:CK 6.681e-08
*RC coord_h_reg\[2\]:CK 6.850e-08
*RC cycle_cnt_lv2_reg\[4\]:CK 6.850e-08
*RC cycle_cnt_lv2_reg\[2\]:CK 6.850e-08
*RC cycle_cnt_lv2_reg\[5\]:CK 7.242e-08
*RC coord_h_reg\[3\]:CK 6.850e-08
*RC coord_h_reg\[4\]:CK 6.850e-08
*RC coord_v_reg\[5\]:CK 6.850e-08
*RC DONE_reg:CK 6.681e-08
*RC next_rem_v_reg\[6\]:CK 6.681e-08
*RC coord_v_reg\[1\]:CK 6.850e-08
*RC next_rem_v_reg\[4\]:CK 6.681e-08
*RC cycle_cnt_lv2_reg\[7\]:CK 6.681e-08
*RC sns_divider\/remainder_reg\[1\]:CK 6.681e-08
*RC sns_divider\/remainder_reg\[3\]:CK 6.681e-08
*RC sns_divider\/remainder_reg\[4\]:CK 6.681e-08
*RC sns_divider\/remainder_reg\[5\]:CK 6.681e-08
*RC next_rem_v_reg\[2\]:CK 6.681e-08
*RC sns_divider\/remainder_reg\[0\]:CK 6.681e-08
*RC next_rem_v_reg\[3\]:CK 6.681e-08
*RC next_rem_v_reg\[1\]:CK 6.681e-08
*RC coord_v_reg\[6\]:CK 6.681e-08
*RC coord_h_reg\[6\]:CK 6.681e-08
*RC coord_h_reg\[5\]:CK 6.681e-08
*RC next_rem_v_reg\[0\]:CK 6.681e-08
*RC cycle_cnt_lv2_reg\[3\]:CK 6.681e-08
*RC cycle_cnt_lv2_reg\[0\]:CK 6.681e-08
*RC coord_v_reg\[2\]:CK 6.681e-08
*RC rem_h_reg\[6\]:CK 6.681e-08
*RC rem_h_reg\[5\]:CK 6.681e-08
*RC coord_h_reg\[1\]:CK 6.681e-08
*RC rem_h_reg\[4\]:CK 6.681e-08
*RC rem_h_reg\[3\]:CK 6.681e-08
*RC coord_v_reg\[3\]:CK 6.681e-08
*RC coord_v_reg\[4\]:CK 6.681e-08
*RC coord_v_reg\[0\]:CK 6.681e-08
*RC state_reg:CK 6.681e-08
*RC coord_h_reg\[0\]:CK 6.681e-08
*RC rem_h_reg\[2\]:CK 6.681e-08
*RC rem_h_reg\[1\]:CK 6.681e-08
*RC rem_h_reg\[0\]:CK 6.681e-08
*RC cycle_cnt_reg\[1\]:CK 6.681e-08
*RC prev_coord_v_reg\[1\]:CK 6.681e-08
*RC cycle_cnt_reg\[0\]:CK 6.681e-08
*RC prev_coord_h_reg\[0\]:CK 6.681e-08
*RC prev_coord_h_reg\[1\]:CK 6.681e-08
*RC prev_coord_h_reg\[2\]:CK 6.681e-08
*RC prev_coord_h_reg\[3\]:CK 6.681e-08
*RC prev_coord_h_reg\[4\]:CK 6.681e-08
*RC prev_coord_h_reg\[5\]:CK 6.681e-08
*RC prev_coord_h_reg\[6\]:CK 6.681e-08
*RC prev_coord_v_reg\[0\]:CK 6.681e-08
*RC prev_coord_v_reg\[2\]:CK 6.681e-08
*RC prev_coord_v_reg\[3\]:CK 6.681e-08
*RC prev_coord_v_reg\[4\]:CK 6.681e-08
*RC prev_coord_v_reg\[5\]:CK 6.681e-08
*RC prev_coord_v_reg\[6\]:CK 6.681e-08
*RC prev_mode_reg:CK 6.681e-08
*RC cycle_cnt_reg\[2\]:CK 6.681e-08
*RC rem_v_reg\[0\]:CK 6.681e-08
*RC sns_divider\/qoutient_reg\[0\]:CK 6.364e-08
*RC rem_v_reg\[1\]:CK 6.681e-08
*RC rem_v_reg\[2\]:CK 6.681e-08
*RC rem_v_reg\[3\]:CK 6.681e-08
*RC rem_v_reg\[4\]:CK 6.681e-08
*RC rem_v_reg\[5\]:CK 6.681e-08
*RC rem_v_reg\[6\]:CK 6.681e-08
*RC sns_divider\/qoutient_reg\[1\]:CK 6.364e-08
*RC sns_divider\/qoutient_reg\[2\]:CK 6.364e-08
*RC sns_divider\/qoutient_reg\[3\]:CK 6.364e-08
*RC sns_divider\/qoutient_reg\[4\]:CK 6.364e-08
*RC sns_divider\/qoutient_reg\[5\]:CK 6.364e-08
*RC sns_divider\/qoutient_reg\[6\]:CK 6.364e-08
*RC sns_divider\/qoutient_reg\[7\]:CK 6.364e-08
*RC u_ResultSRAM:CLK 5.667e-08
*DRIVER u_ResultSRAM:CLK
*CELL ResultSRAM
*C2_R1_C1 4.759e-01 4.590e-04 4.759e-01 
*LOADS
*RC sns_divider\/remainder_reg\[2\]:CK 6.681e-08
*RC cycle_cnt_lv2_reg\[1\]:CK 6.850e-08
*RC sns_divider\/remainder_reg\[6\]:CK 6.681e-08
*RC next_rem_v_reg\[5\]:CK 6.701e-08
*RC cycle_cnt_lv2_reg\[6\]:CK 6.850e-08
*RC mode_reg:CK 6.364e-08
*RC next_mode_reg:CK 6.681e-08
*RC coord_h_reg\[2\]:CK 6.850e-08
*RC cycle_cnt_lv2_reg\[4\]:CK 6.850e-08
*RC cycle_cnt_lv2_reg\[2\]:CK 6.850e-08
*RC cycle_cnt_lv2_reg\[5\]:CK 7.242e-08
*RC coord_h_reg\[3\]:CK 6.850e-08
*RC coord_h_reg\[4\]:CK 6.850e-08
*RC coord_v_reg\[5\]:CK 6.850e-08
*RC DONE_reg:CK 6.681e-08
*RC next_rem_v_reg\[6\]:CK 6.681e-08
*RC coord_v_reg\[1\]:CK 6.850e-08
*RC next_rem_v_reg\[4\]:CK 6.681e-08
*RC cycle_cnt_lv2_reg\[7\]:CK 6.681e-08
*RC sns_divider\/remainder_reg\[1\]:CK 6.681e-08
*RC sns_divider\/remainder_reg\[3\]:CK 6.681e-08
*RC sns_divider\/remainder_reg\[4\]:CK 6.681e-08
*RC sns_divider\/remainder_reg\[5\]:CK 6.681e-08
*RC next_rem_v_reg\[2\]:CK 6.681e-08
*RC sns_divider\/remainder_reg\[0\]:CK 6.681e-08
*RC next_rem_v_reg\[3\]:CK 6.681e-08
*RC next_rem_v_reg\[1\]:CK 6.681e-08
*RC coord_v_reg\[6\]:CK 6.681e-08
*RC coord_h_reg\[6\]:CK 6.681e-08
*RC coord_h_reg\[5\]:CK 6.681e-08
*RC next_rem_v_reg\[0\]:CK 6.681e-08
*RC cycle_cnt_lv2_reg\[3\]:CK 6.681e-08
*RC cycle_cnt_lv2_reg\[0\]:CK 6.681e-08
*RC coord_v_reg\[2\]:CK 6.681e-08
*RC rem_h_reg\[6\]:CK 6.681e-08
*RC rem_h_reg\[5\]:CK 6.681e-08
*RC coord_h_reg\[1\]:CK 6.681e-08
*RC rem_h_reg\[4\]:CK 6.681e-08
*RC rem_h_reg\[3\]:CK 6.681e-08
*RC coord_v_reg\[3\]:CK 6.681e-08
*RC coord_v_reg\[4\]:CK 6.681e-08
*RC coord_v_reg\[0\]:CK 6.681e-08
*RC state_reg:CK 6.681e-08
*RC coord_h_reg\[0\]:CK 6.681e-08
*RC rem_h_reg\[2\]:CK 6.681e-08
*RC rem_h_reg\[1\]:CK 6.681e-08
*RC rem_h_reg\[0\]:CK 6.681e-08
*RC cycle_cnt_reg\[1\]:CK 6.681e-08
*RC prev_coord_v_reg\[1\]:CK 6.681e-08
*RC cycle_cnt_reg\[0\]:CK 6.681e-08
*RC prev_coord_h_reg\[0\]:CK 6.681e-08
*RC prev_coord_h_reg\[1\]:CK 6.681e-08
*RC prev_coord_h_reg\[2\]:CK 6.681e-08
*RC prev_coord_h_reg\[3\]:CK 6.681e-08
*RC prev_coord_h_reg\[4\]:CK 6.681e-08
*RC prev_coord_h_reg\[5\]:CK 6.681e-08
*RC prev_coord_h_reg\[6\]:CK 6.681e-08
*RC prev_coord_v_reg\[0\]:CK 6.681e-08
*RC prev_coord_v_reg\[2\]:CK 6.681e-08
*RC prev_coord_v_reg\[3\]:CK 6.681e-08
*RC prev_coord_v_reg\[4\]:CK 6.681e-08
*RC prev_coord_v_reg\[5\]:CK 6.681e-08
*RC prev_coord_v_reg\[6\]:CK 6.681e-08
*RC prev_mode_reg:CK 6.681e-08
*RC cycle_cnt_reg\[2\]:CK 6.681e-08
*RC rem_v_reg\[0\]:CK 6.681e-08
*RC sns_divider\/qoutient_reg\[0\]:CK 6.364e-08
*RC rem_v_reg\[1\]:CK 6.681e-08
*RC rem_v_reg\[2\]:CK 6.681e-08
*RC rem_v_reg\[3\]:CK 6.681e-08
*RC rem_v_reg\[4\]:CK 6.681e-08
*RC rem_v_reg\[5\]:CK 6.681e-08
*RC rem_v_reg\[6\]:CK 6.681e-08
*RC sns_divider\/qoutient_reg\[1\]:CK 6.364e-08
*RC sns_divider\/qoutient_reg\[2\]:CK 6.364e-08
*RC sns_divider\/qoutient_reg\[3\]:CK 6.364e-08
*RC sns_divider\/qoutient_reg\[4\]:CK 6.364e-08
*RC sns_divider\/qoutient_reg\[5\]:CK 6.364e-08
*RC sns_divider\/qoutient_reg\[6\]:CK 6.364e-08
*RC sns_divider\/qoutient_reg\[7\]:CK 6.364e-08
*END

*R_NET RST 1.450e-01
*DRIVER RST
*CELL NULL
*C2_R1_C1 7.251e-02 5.100e-05 7.251e-02 
*LOADS
*RC U750:B 8.797e-08
*RC U760:B0 8.913e-08
*RC U761:A1 7.729e-08
*RC U790:A 1.293e-07
*RC U947:B 1.387e-07
*RC U1060:A1 7.729e-08
*RC U1578:A 7.299e-08
*RC U1582:A 7.299e-08
*RC U1803:A1 7.615e-08
*END

*R_NET SW\[4\] 3.934e-02
*DRIVER SW\[4\]
*CELL NULL
*C2_R1_C1 1.967e-02 1.700e-05 1.967e-02 
*LOADS
*RC U811:A 6.455e-08
*RC U1001:B 8.314e-08
*RC U1055:A 7.523e-08
*END

*R_NET SW\[3\] 4.278e-02
*DRIVER SW\[3\]
*CELL NULL
*C2_R1_C1 2.139e-02 1.700e-05 2.139e-02 
*LOADS
*RC U820:B 7.131e-08
*RC U941:B 8.797e-08
*RC U1000:B 8.314e-08
*END

*R_NET SW\[2\] 4.279e-02
*DRIVER SW\[2\]
*CELL NULL
*C2_R1_C1 2.140e-02 1.700e-05 2.140e-02 
*LOADS
*RC U943:A 7.278e-08
*RC U978:A 8.658e-08
*RC U998:B 8.314e-08
*END

*R_NET SW\[1\] 3.891e-02
*DRIVER SW\[1\]
*CELL NULL
*C2_R1_C1 1.945e-02 1.700e-05 1.945e-02 
*LOADS
*RC U829:A 6.455e-08
*RC U836:A 7.278e-08
*RC U999:B 8.314e-08
*END

*R_NET SW\[0\] 3.748e-02
*DRIVER SW\[0\]
*CELL NULL
*C2_R1_C1 1.874e-02 1.700e-05 1.874e-02 
*LOADS
*RC U1157:A 7.523e-08
*RC U1204:A 6.419e-08
*RC U1220:A 7.299e-08
*END

*R_NET SH\[4\] 2.541e-02
*DRIVER SH\[4\]
*CELL NULL
*C2_R1_C1 1.271e-02 1.133e-05 1.271e-02 
*LOADS
*RC U915:B 7.319e-08
*RC U1455:A 7.082e-08
*END

*R_NET SH\[3\] 4.324e-02
*DRIVER SH\[3\]
*CELL NULL
*C2_R1_C1 2.162e-02 1.700e-05 2.162e-02 
*LOADS
*RC U979:B 8.797e-08
*RC U983:A 6.945e-08
*RC U1198:B 8.762e-08
*END

*R_NET SH\[2\] 2.896e-02
*DRIVER SH\[2\]
*CELL NULL
*C2_R1_C1 1.448e-02 1.133e-05 1.448e-02 
*LOADS
*RC U913:B 7.319e-08
*RC U1165:A 9.092e-08
*END

*R_NET SH\[1\] 4.740e-02
*DRIVER SH\[1\]
*CELL NULL
*C2_R1_C1 2.370e-02 1.700e-05 2.370e-02 
*LOADS
*RC U849:A 8.432e-08
*RC U1166:A 6.945e-08
*RC U1442:B 1.148e-07
*END

*R_NET SH\[0\] 6.120e-02
*DRIVER SH\[0\]
*CELL NULL
*C2_R1_C1 3.060e-02 2.267e-05 3.060e-02 
*LOADS
*RC U848:A 7.082e-08
*RC U849:B 8.762e-08
*RC U1442:A 1.174e-07
*RC U1506:B 7.093e-08
*END

*R_NET TW\[5\] 1.426e-01
*DRIVER TW\[5\]
*CELL NULL
*C2_R1_C1 7.131e-02 5.100e-05 7.131e-02 
*LOADS
*RC U828:B 6.524e-08
*RC U1111:B 1.454e-07
*RC U1203:B 7.131e-08
*RC U1257:B 1.454e-07
*RC U1279:B 8.762e-08
*RC U1288:B 7.131e-08
*RC U1641:A 7.082e-08
*RC U1644:B1 6.796e-08
*RC U1918:B 8.314e-08
*END

*R_NET TW\[4\] 1.305e-01
*DRIVER TW\[4\]
*CELL NULL
*C2_R1_C1 6.525e-02 5.100e-05 6.525e-02 
*LOADS
*RC U831:B 6.524e-08
*RC U1059:A 7.082e-08
*RC U1118:B 8.314e-08
*RC U1133:B 1.454e-07
*RC U1175:B 8.314e-08
*RC U1260:B 7.357e-08
*RC U1278:B 7.890e-08
*RC U1286:B 7.131e-08
*RC U1645:A1 6.796e-08
*END

*R_NET TW\[3\] 1.064e-01
*DRIVER TW\[3\]
*CELL NULL
*C2_R1_C1 5.322e-02 4.533e-05 5.322e-02 
*LOADS
*RC U845:B 7.014e-08
*RC U878:A 7.082e-08
*RC U1129:B 8.314e-08
*RC U1176:B 8.314e-08
*RC U1251:B 8.314e-08
*RC U1262:B 7.357e-08
*RC U1292:B 7.131e-08
*RC U1646:A1 6.796e-08
*END

*R_NET TW\[2\] 1.365e-01
*DRIVER TW\[2\]
*CELL NULL
*C2_R1_C1 6.826e-02 5.667e-05 6.826e-02 
*LOADS
*RC U825:B 8.314e-08
*RC U944:A 7.278e-08
*RC intadd_1\/U5:B 8.314e-08
*RC U1057:B 7.890e-08
*RC U1188:B 8.762e-08
*RC U1241:B 8.314e-08
*RC U1285:A 7.299e-08
*RC U1291:A 7.401e-08
*RC U1335:A 7.082e-08
*RC U1642:B1 6.703e-08
*END

*R_NET TW\[1\] 1.812e-01
*DRIVER TW\[1\]
*CELL NULL
*C2_R1_C1 9.058e-02 7.933e-05 9.058e-02 
*LOADS
*RC U1167:A 6.945e-08
*RC intadd_1\/U6:B 8.314e-08
*RC U1170:B 6.822e-08
*RC U1207:B0 6.606e-08
*RC U1243:B 8.314e-08
*RC U1259:B 7.890e-08
*RC U1269:B 7.357e-08
*RC U1285:B 7.093e-08
*RC U1291:B 7.319e-08
*RC U1321:A 7.401e-08
*RC U1339:B1 7.348e-08
*RC U1351:A1 6.356e-08
*RC U1352:A0 7.495e-08
*RC U1436:A 7.401e-08
*END

*R_NET TW\[0\] 1.552e-01
*DRIVER TW\[0\]
*CELL NULL
*C2_R1_C1 7.762e-02 6.800e-05 7.762e-02 
*LOADS
*RC U791:B0 7.339e-08
*RC U1284:A 7.523e-08
*RC U1307:A 6.455e-08
*RC U912:A 7.082e-08
*RC U1244:B 7.684e-08
*RC U1259:A 7.786e-08
*RC U1269:A 7.523e-08
*RC U1322:A 7.278e-08
*RC U1338:A 7.278e-08
*RC U1379:A 7.523e-08
*RC U1491:A 6.913e-08
*RC U1890:B0 7.588e-08
*END

*R_NET TH\[5\] 1.012e-01
*DRIVER TH\[5\]
*CELL NULL
*C2_R1_C1 5.058e-02 4.533e-05 5.058e-02 
*LOADS
*RC U818:B 6.524e-08
*RC U827:B 6.524e-08
*RC U1237:B 7.357e-08
*RC U1364:B 7.357e-08
*RC U1485:B 7.357e-08
*RC U1489:B 6.524e-08
*RC U1537:A 7.490e-08
*RC U1918:A 8.196e-08
*END

*R_NET TH\[4\] 1.044e-01
*DRIVER TH\[4\]
*CELL NULL
*C2_R1_C1 5.222e-02 4.533e-05 5.222e-02 
*LOADS
*RC U1046:B 7.890e-08
*RC U1050:B 7.014e-08
*RC U1175:A 8.196e-08
*RC U1238:B 7.357e-08
*RC U1356:B 7.357e-08
*RC U1484:B 6.524e-08
*RC U1486:B 7.357e-08
*RC U1529:A 7.490e-08
*END

*R_NET TH\[3\] 1.044e-01
*DRIVER TH\[3\]
*CELL NULL
*C2_R1_C1 5.222e-02 4.533e-05 5.222e-02 
*LOADS
*RC U982:B 7.014e-08
*RC U1153:B 7.890e-08
*RC U1176:A 8.196e-08
*RC U1239:B 7.357e-08
*RC U1331:B 7.357e-08
*RC U1483:B 6.524e-08
*RC U1487:B 7.357e-08
*RC U1517:A 7.490e-08
*END

*R_NET TH\[2\] 1.019e-01
*DRIVER TH\[2\]
*CELL NULL
*C2_R1_C1 5.093e-02 4.533e-05 5.093e-02 
*LOADS
*RC U847:B 7.357e-08
*RC U863:A 6.904e-08
*RC intadd_1\/U5:A 8.196e-08
*RC U981:B 7.014e-08
*RC U1236:B 7.014e-08
*RC U1328:B 7.357e-08
*RC U1482:B 6.524e-08
*RC U1488:B 7.357e-08
*END

*R_NET TH\[1\] 1.441e-01
*DRIVER TH\[1\]
*CELL NULL
*C2_R1_C1 7.204e-02 6.233e-05 7.204e-02 
*LOADS
*RC U847:A 7.523e-08
*RC U853:A 6.496e-08
*RC U1084:A 6.904e-08
*RC intadd_1\/U6:A 8.196e-08
*RC U1171:A 9.465e-08
*RC U1316:B 7.357e-08
*RC U1396:A 7.523e-08
*RC U1236:A 6.913e-08
*RC U1327:B 7.890e-08
*RC U1408:A0 6.739e-08
*RC U1412:A 6.644e-08
*END

*R_NET TH\[0\] 1.397e-01
*DRIVER TH\[0\]
*CELL NULL
*C2_R1_C1 6.984e-02 6.233e-05 6.984e-02 
*LOADS
*RC U791:A1 7.416e-08
*RC U854:B 6.479e-08
*RC U1673:A 7.401e-08
*RC U918:A 6.496e-08
*RC U917:A 6.496e-08
*RC U1171:B 8.658e-08
*RC U1822:A 6.496e-08
*RC U1244:A 6.913e-08
*RC U1316:A 7.523e-08
*RC U1327:A 7.786e-08
*RC U1507:A 7.490e-08
*END

*R_NET n1725 1.896e-02
*DRIVER DONE_reg:Q
*CELL DFFQX1
*C2_R1_C1 9.480e-03 5.667e-06 9.480e-03 
*LOADS
*RC U1190:A 1.074e-07
*END

*R_NET frac_8_val\[7\] 1.144e-02
*DRIVER sns_divider\/qoutient_reg\[7\]:Q
*CELL DFFTRX1
*C2_R1_C1 5.718e-03 5.667e-06 5.718e-03 
*LOADS
*RC U737:A1 6.480e-08
*END

*R_NET frac_8_val\[6\] 2.277e-02
*DRIVER sns_divider\/qoutient_reg\[6\]:Q
*CELL DFFTRX1
*C2_R1_C1 1.138e-02 1.133e-05 1.138e-02 
*LOADS
*RC sns_divider\/qoutient_reg\[7\]:D 6.422e-08
*RC U738:A1 6.480e-08
*END

*R_NET frac_8_val\[5\] 2.277e-02
*DRIVER sns_divider\/qoutient_reg\[5\]:Q
*CELL DFFTRX1
*C2_R1_C1 1.138e-02 1.133e-05 1.138e-02 
*LOADS
*RC sns_divider\/qoutient_reg\[6\]:D 6.422e-08
*RC U739:A1 6.480e-08
*END

*R_NET frac_8_val\[4\] 2.277e-02
*DRIVER sns_divider\/qoutient_reg\[4\]:Q
*CELL DFFTRX1
*C2_R1_C1 1.138e-02 1.133e-05 1.138e-02 
*LOADS
*RC sns_divider\/qoutient_reg\[5\]:D 6.422e-08
*RC U740:A1 6.480e-08
*END

*R_NET frac_8_val\[3\] 2.277e-02
*DRIVER sns_divider\/qoutient_reg\[3\]:Q
*CELL DFFTRX1
*C2_R1_C1 1.138e-02 1.133e-05 1.138e-02 
*LOADS
*RC sns_divider\/qoutient_reg\[4\]:D 6.422e-08
*RC U741:A1 6.480e-08
*END

*R_NET frac_8_val\[2\] 2.277e-02
*DRIVER sns_divider\/qoutient_reg\[2\]:Q
*CELL DFFTRX1
*C2_R1_C1 1.138e-02 1.133e-05 1.138e-02 
*LOADS
*RC sns_divider\/qoutient_reg\[3\]:D 6.422e-08
*RC U742:A1 6.480e-08
*END

*R_NET frac_8_val\[1\] 2.277e-02
*DRIVER sns_divider\/qoutient_reg\[1\]:Q
*CELL DFFTRX1
*C2_R1_C1 1.138e-02 1.133e-05 1.138e-02 
*LOADS
*RC sns_divider\/qoutient_reg\[2\]:D 6.422e-08
*RC U743:A1 6.480e-08
*END

*R_NET frac_8_val\[0\] 2.277e-02
*DRIVER sns_divider\/qoutient_reg\[0\]:Q
*CELL DFFTRX1
*C2_R1_C1 1.138e-02 1.133e-05 1.138e-02 
*LOADS
*RC sns_divider\/qoutient_reg\[1\]:D 6.422e-08
*RC U744:A1 6.480e-08
*END

*R_NET state 3.672e-02
*DRIVER state_reg:Q
*CELL DFFQX1
*C2_R1_C1 1.836e-02 1.700e-05 1.836e-02 
*LOADS
*RC U804:A 6.864e-08
*RC U1053:A 7.082e-08
*RC U1546:A 6.864e-08
*END

*R_NET cycle_cnt\[2\] 3.762e-02
*DRIVER cycle_cnt_reg\[2\]:Q
*CELL DFFQX1
*C2_R1_C1 1.881e-02 1.700e-05 1.881e-02 
*LOADS
*RC U810:C 7.142e-08
*RC U1056:A 7.082e-08
*RC U1183:B 7.093e-08
*END

*R_NET cycle_cnt\[1\] 7.595e-02
*DRIVER cycle_cnt_reg\[1\]:Q
*CELL DFFQX1
*C2_R1_C1 3.797e-02 3.400e-05 3.797e-02 
*LOADS
*RC U810:A 6.928e-08
*RC U1148:A 8.773e-08
*RC U1183:A 7.299e-08
*RC U1650:A 6.644e-08
*RC U1864:B 6.524e-08
*RC U1865:A1 6.869e-08
*END

*R_NET cycle_cnt\[0\] 7.647e-02
*DRIVER cycle_cnt_reg\[0\]:Q
*CELL DFFQX1
*C2_R1_C1 3.823e-02 3.400e-05 3.823e-02 
*LOADS
*RC U810:B 6.929e-08
*RC U1103:A 7.299e-08
*RC U1148:B 9.110e-08
*RC U1180:A 6.945e-08
*RC U1650:B 6.524e-08
*RC U1697:B 6.524e-08
*END

*R_NET mode 2.576e-02
*DRIVER mode_reg:Q
*CELL DFFTRX1
*C2_R1_C1 1.288e-02 1.133e-05 1.288e-02 
*LOADS
*RC U1402:B 7.093e-08
*RC U1768:D 7.504e-08
*END

*R_NET SRAM_data_o\[7\] 0.000e+00
*DRIVER u_ResultSRAM:Q\[7\]
*CELL ResultSRAM
*C2_R1_C1 0.000e+00 0.000e+00 0.000e+00 
*LOADS
*END

*R_NET SRAM_data_o\[6\] 0.000e+00
*DRIVER u_ResultSRAM:Q\[6\]
*CELL ResultSRAM
*C2_R1_C1 0.000e+00 0.000e+00 0.000e+00 
*LOADS
*END

*R_NET SRAM_data_o\[5\] 0.000e+00
*DRIVER u_ResultSRAM:Q\[5\]
*CELL ResultSRAM
*C2_R1_C1 0.000e+00 0.000e+00 0.000e+00 
*LOADS
*END

*R_NET SRAM_data_o\[4\] 0.000e+00
*DRIVER u_ResultSRAM:Q\[4\]
*CELL ResultSRAM
*C2_R1_C1 0.000e+00 0.000e+00 0.000e+00 
*LOADS
*END

*R_NET SRAM_data_o\[3\] 0.000e+00
*DRIVER u_ResultSRAM:Q\[3\]
*CELL ResultSRAM
*C2_R1_C1 0.000e+00 0.000e+00 0.000e+00 
*LOADS
*END

*R_NET SRAM_data_o\[2\] 0.000e+00
*DRIVER u_ResultSRAM:Q\[2\]
*CELL ResultSRAM
*C2_R1_C1 0.000e+00 0.000e+00 0.000e+00 
*LOADS
*END

*R_NET SRAM_data_o\[1\] 0.000e+00
*DRIVER u_ResultSRAM:Q\[1\]
*CELL ResultSRAM
*C2_R1_C1 0.000e+00 0.000e+00 0.000e+00 
*LOADS
*END

*R_NET SRAM_data_o\[0\] 0.000e+00
*DRIVER u_ResultSRAM:Q\[0\]
*CELL ResultSRAM
*C2_R1_C1 0.000e+00 0.000e+00 0.000e+00 
*LOADS
*END

*R_NET SRAM_CEN 1.000e-02
*DRIVER U724:Y
*CELL AO22X1
*C2_R1_C1 5.000e-03 5.667e-06 5.000e-03 
*LOADS
*RC u_ResultSRAM:CEN 5.667e-08
*DRIVER u_ResultSRAM:CEN
*CELL ResultSRAM
*C2_R1_C1 5.000e-03 5.667e-06 5.000e-03 
*LOADS
*END

*R_NET SRAM_WEN 1.000e-02
*DRIVER U736:Y
*CELL AO22X1
*C2_R1_C1 5.000e-03 5.667e-06 5.000e-03 
*LOADS
*RC u_ResultSRAM:WEN 5.667e-08
*DRIVER u_ResultSRAM:WEN
*CELL ResultSRAM
*C2_R1_C1 5.000e-03 5.667e-06 5.000e-03 
*LOADS
*END

*R_NET SRAM_addr\[13\] 1.000e-02
*DRIVER U725:Y
*CELL OAI2BB1XL
*C2_R1_C1 5.000e-03 5.667e-06 5.000e-03 
*LOADS
*RC u_ResultSRAM:A\[13\] 5.667e-08
*DRIVER u_ResultSRAM:A\[13\]
*CELL ResultSRAM
*C2_R1_C1 5.000e-03 5.667e-06 5.000e-03 
*LOADS
*END

*R_NET SRAM_addr\[12\] 1.000e-02
*DRIVER U726:Y
*CELL OAI2BB1XL
*C2_R1_C1 5.000e-03 5.667e-06 5.000e-03 
*LOADS
*RC u_ResultSRAM:A\[12\] 5.667e-08
*DRIVER u_ResultSRAM:A\[12\]
*CELL ResultSRAM
*C2_R1_C1 5.000e-03 5.667e-06 5.000e-03 
*LOADS
*END

*R_NET SRAM_addr\[11\] 1.000e-02
*DRIVER U723:Y
*CELL AND2X1
*C2_R1_C1 5.000e-03 5.667e-06 5.000e-03 
*LOADS
*RC u_ResultSRAM:A\[11\] 5.667e-08
*DRIVER u_ResultSRAM:A\[11\]
*CELL ResultSRAM
*C2_R1_C1 5.000e-03 5.667e-06 5.000e-03 
*LOADS
*END

*R_NET SRAM_addr\[10\] 1.000e-02
*DRIVER U722:Y
*CELL AND2X1
*C2_R1_C1 5.000e-03 5.667e-06 5.000e-03 
*LOADS
*RC u_ResultSRAM:A\[10\] 5.667e-08
*DRIVER u_ResultSRAM:A\[10\]
*CELL ResultSRAM
*C2_R1_C1 5.000e-03 5.667e-06 5.000e-03 
*LOADS
*END

*R_NET SRAM_addr\[9\] 1.000e-02
*DRIVER U727:Y
*CELL OAI2BB1XL
*C2_R1_C1 5.000e-03 5.667e-06 5.000e-03 
*LOADS
*RC u_ResultSRAM:A\[9\] 5.667e-08
*DRIVER u_ResultSRAM:A\[9\]
*CELL ResultSRAM
*C2_R1_C1 5.000e-03 5.667e-06 5.000e-03 
*LOADS
*END

*R_NET SRAM_addr\[8\] 1.000e-02
*DRIVER U721:Y
*CELL AND2X1
*C2_R1_C1 5.000e-03 5.667e-06 5.000e-03 
*LOADS
*RC u_ResultSRAM:A\[8\] 5.667e-08
*DRIVER u_ResultSRAM:A\[8\]
*CELL ResultSRAM
*C2_R1_C1 5.000e-03 5.667e-06 5.000e-03 
*LOADS
*END

*R_NET SRAM_addr\[7\] 1.000e-02
*DRIVER U728:Y
*CELL AO22X1
*C2_R1_C1 5.000e-03 5.667e-06 5.000e-03 
*LOADS
*RC u_ResultSRAM:A\[7\] 5.667e-08
*DRIVER u_ResultSRAM:A\[7\]
*CELL ResultSRAM
*C2_R1_C1 5.000e-03 5.667e-06 5.000e-03 
*LOADS
*END

*R_NET SRAM_addr\[6\] 1.000e-02
*DRIVER U729:Y
*CELL AO22X1
*C2_R1_C1 5.000e-03 5.667e-06 5.000e-03 
*LOADS
*RC u_ResultSRAM:A\[6\] 5.667e-08
*DRIVER u_ResultSRAM:A\[6\]
*CELL ResultSRAM
*C2_R1_C1 5.000e-03 5.667e-06 5.000e-03 
*LOADS
*END

*R_NET SRAM_addr\[5\] 1.000e-02
*DRIVER U730:Y
*CELL AO22X1
*C2_R1_C1 5.000e-03 5.667e-06 5.000e-03 
*LOADS
*RC u_ResultSRAM:A\[5\] 5.667e-08
*DRIVER u_ResultSRAM:A\[5\]
*CELL ResultSRAM
*C2_R1_C1 5.000e-03 5.667e-06 5.000e-03 
*LOADS
*END

*R_NET SRAM_addr\[4\] 1.000e-02
*DRIVER U731:Y
*CELL AO22X1
*C2_R1_C1 5.000e-03 5.667e-06 5.000e-03 
*LOADS
*RC u_ResultSRAM:A\[4\] 5.667e-08
*DRIVER u_ResultSRAM:A\[4\]
*CELL ResultSRAM
*C2_R1_C1 5.000e-03 5.667e-06 5.000e-03 
*LOADS
*END

*R_NET SRAM_addr\[3\] 1.000e-02
*DRIVER U732:Y
*CELL AO22X1
*C2_R1_C1 5.000e-03 5.667e-06 5.000e-03 
*LOADS
*RC u_ResultSRAM:A\[3\] 5.667e-08
*DRIVER u_ResultSRAM:A\[3\]
*CELL ResultSRAM
*C2_R1_C1 5.000e-03 5.667e-06 5.000e-03 
*LOADS
*END

*R_NET SRAM_addr\[2\] 1.000e-02
*DRIVER U733:Y
*CELL AO22X1
*C2_R1_C1 5.000e-03 5.667e-06 5.000e-03 
*LOADS
*RC u_ResultSRAM:A\[2\] 5.667e-08
*DRIVER u_ResultSRAM:A\[2\]
*CELL ResultSRAM
*C2_R1_C1 5.000e-03 5.667e-06 5.000e-03 
*LOADS
*END

*R_NET SRAM_addr\[1\] 1.000e-02
*DRIVER U734:Y
*CELL AO22X1
*C2_R1_C1 5.000e-03 5.667e-06 5.000e-03 
*LOADS
*RC u_ResultSRAM:A\[1\] 5.667e-08
*DRIVER u_ResultSRAM:A\[1\]
*CELL ResultSRAM
*C2_R1_C1 5.000e-03 5.667e-06 5.000e-03 
*LOADS
*END

*R_NET SRAM_addr\[0\] 1.000e-02
*DRIVER U735:Y
*CELL AO22X1
*C2_R1_C1 5.000e-03 5.667e-06 5.000e-03 
*LOADS
*RC u_ResultSRAM:A\[0\] 5.667e-08
*DRIVER u_ResultSRAM:A\[0\]
*CELL ResultSRAM
*C2_R1_C1 5.000e-03 5.667e-06 5.000e-03 
*LOADS
*END

*R_NET SRAM_data_i\[7\] 1.000e-02
*DRIVER U737:Y
*CELL AO22X1
*C2_R1_C1 5.000e-03 5.667e-06 5.000e-03 
*LOADS
*RC u_ResultSRAM:D\[7\] 5.667e-08
*DRIVER u_ResultSRAM:D\[7\]
*CELL ResultSRAM
*C2_R1_C1 5.000e-03 5.667e-06 5.000e-03 
*LOADS
*END

*R_NET SRAM_data_i\[6\] 1.000e-02
*DRIVER U738:Y
*CELL AO22X1
*C2_R1_C1 5.000e-03 5.667e-06 5.000e-03 
*LOADS
*RC u_ResultSRAM:D\[6\] 5.667e-08
*DRIVER u_ResultSRAM:D\[6\]
*CELL ResultSRAM
*C2_R1_C1 5.000e-03 5.667e-06 5.000e-03 
*LOADS
*END

*R_NET SRAM_data_i\[5\] 1.000e-02
*DRIVER U739:Y
*CELL AO22X1
*C2_R1_C1 5.000e-03 5.667e-06 5.000e-03 
*LOADS
*RC u_ResultSRAM:D\[5\] 5.667e-08
*DRIVER u_ResultSRAM:D\[5\]
*CELL ResultSRAM
*C2_R1_C1 5.000e-03 5.667e-06 5.000e-03 
*LOADS
*END

*R_NET SRAM_data_i\[4\] 1.000e-02
*DRIVER U740:Y
*CELL AO22X1
*C2_R1_C1 5.000e-03 5.667e-06 5.000e-03 
*LOADS
*RC u_ResultSRAM:D\[4\] 5.667e-08
*DRIVER u_ResultSRAM:D\[4\]
*CELL ResultSRAM
*C2_R1_C1 5.000e-03 5.667e-06 5.000e-03 
*LOADS
*END

*R_NET SRAM_data_i\[3\] 1.000e-02
*DRIVER U741:Y
*CELL AO22X1
*C2_R1_C1 5.000e-03 5.667e-06 5.000e-03 
*LOADS
*RC u_ResultSRAM:D\[3\] 5.667e-08
*DRIVER u_ResultSRAM:D\[3\]
*CELL ResultSRAM
*C2_R1_C1 5.000e-03 5.667e-06 5.000e-03 
*LOADS
*END

*R_NET SRAM_data_i\[2\] 1.000e-02
*DRIVER U742:Y
*CELL AO22X1
*C2_R1_C1 5.000e-03 5.667e-06 5.000e-03 
*LOADS
*RC u_ResultSRAM:D\[2\] 5.667e-08
*DRIVER u_ResultSRAM:D\[2\]
*CELL ResultSRAM
*C2_R1_C1 5.000e-03 5.667e-06 5.000e-03 
*LOADS
*END

*R_NET SRAM_data_i\[1\] 1.000e-02
*DRIVER U743:Y
*CELL AO22X1
*C2_R1_C1 5.000e-03 5.667e-06 5.000e-03 
*LOADS
*RC u_ResultSRAM:D\[1\] 5.667e-08
*DRIVER u_ResultSRAM:D\[1\]
*CELL ResultSRAM
*C2_R1_C1 5.000e-03 5.667e-06 5.000e-03 
*LOADS
*END

*R_NET SRAM_data_i\[0\] 1.000e-02
*DRIVER U744:Y
*CELL AO22X1
*C2_R1_C1 5.000e-03 5.667e-06 5.000e-03 
*LOADS
*RC u_ResultSRAM:D\[0\] 5.667e-08
*DRIVER u_ResultSRAM:D\[0\]
*CELL ResultSRAM
*C2_R1_C1 5.000e-03 5.667e-06 5.000e-03 
*LOADS
*END

*R_NET cycle_cnt_lv2\[7\] 8.429e-02
*DRIVER cycle_cnt_lv2_reg\[7\]:Q
*CELL DFFQX1
*C2_R1_C1 4.215e-02 3.967e-05 4.215e-02 
*LOADS
*RC U1156:A 6.945e-08
*RC U1174:B 7.093e-08
*RC U1173:B0 6.372e-08
*RC U1172:A 6.646e-08
*RC U1217:A 7.299e-08
*RC U1565:A 6.646e-08
*RC U1811:C0 6.764e-08
*END

*R_NET cycle_cnt_lv2\[6\] 1.168e-01
*DRIVER cycle_cnt_lv2_reg\[6\]:Q
*CELL DFFQX2
*C2_R1_C1 5.838e-02 5.100e-05 5.838e-02 
*LOADS
*RC U1051:A 9.092e-08
*RC U1093:B 7.357e-08
*RC U1186:B 7.357e-08
*RC U1209:C 6.573e-08
*RC U1217:B 7.093e-08
*RC U1576:A 7.278e-08
*RC U1577:A0 7.380e-08
*RC U1583:A0 6.739e-08
*RC U1815:A 7.299e-08
*END

*R_NET cycle_cnt_lv2\[5\] 2.227e-01
*DRIVER cycle_cnt_lv2_reg\[5\]:Q
*CELL DFFQX4
*C2_R1_C1 1.114e-01 1.020e-04 1.114e-01 
*LOADS
*RC U786:A1 6.869e-08
*RC U823:A 7.082e-08
*RC U867:B 6.479e-08
*RC U901:B 6.479e-08
*RC U1022:B 8.314e-08
*RC U1086:B 7.093e-08
*RC U1098:B 7.319e-08
*RC U1109:B 7.332e-08
*RC U1177:B0 7.339e-08
*RC U1209:B 6.527e-08
*RC U1289:A 7.299e-08
*RC U1500:B 7.357e-08
*RC U1563:A0N 6.544e-08
*RC U1563:B0 7.266e-08
*RC U1817:B0 6.776e-08
*RC U1818:B1 6.757e-08
*RC U1869:A1 6.480e-08
*RC DP_OP_607J1_132_1869\/U11:A 6.913e-08
*END

*R_NET cycle_cnt_lv2\[4\] 1.068e-01
*DRIVER cycle_cnt_lv2_reg\[4\]:Q
*CELL DFFQX2
*C2_R1_C1 5.341e-02 4.533e-05 5.341e-02 
*LOADS
*RC U970:B 8.314e-08
*RC U1092:B1 7.629e-08
*RC U1104:B 7.319e-08
*RC U1105:B 7.357e-08
*RC U1255:A 9.092e-08
*RC U1261:B 7.131e-08
*RC U1575:B0 6.776e-08
*RC DP_OP_607J1_132_1869\/U12:A 6.913e-08
*END

*R_NET cycle_cnt_lv2\[3\] 1.211e-02
*DRIVER cycle_cnt_lv2_reg\[3\]:Q
*CELL DFFQX1
*C2_R1_C1 6.056e-03 5.667e-06 6.056e-03 
*LOADS
*RC U843:A 6.864e-08
*END

*R_NET cycle_cnt_lv2\[2\] 1.039e-01
*DRIVER cycle_cnt_lv2_reg\[2\]:Q
*CELL DFFQX2
*C2_R1_C1 5.196e-02 4.533e-05 5.196e-02 
*LOADS
*RC U812:B 7.093e-08
*RC U1052:B 7.131e-08
*RC U1117:B 7.357e-08
*RC U1207:A0 6.654e-08
*RC U1242:A 9.092e-08
*RC U1334:B 6.822e-08
*RC U1490:B 7.319e-08
*RC U1564:A1 7.416e-08
*END

*R_NET cycle_cnt_lv2\[1\] 1.650e-01
*DRIVER cycle_cnt_lv2_reg\[1\]:Q
*CELL DFFQX2
*C2_R1_C1 8.251e-02 7.367e-05 8.251e-02 
*LOADS
*RC U893:B 6.524e-08
*RC U1031:B 8.800e-08
*RC U1054:A 9.092e-08
*RC U1147:B 7.357e-08
*RC U1207:B1 6.538e-08
*RC U1319:B 6.822e-08
*RC U1339:A1 7.487e-08
*RC U1493:B 7.357e-08
*RC U1566:A1 6.632e-08
*RC U1569:B 6.479e-08
*RC U1570:A1N 6.399e-08
*RC U1570:B1 6.702e-08
*RC U1611:B 7.319e-08
*END

*R_NET cycle_cnt_lv2\[0\] 1.370e-02
*DRIVER cycle_cnt_lv2_reg\[0\]:Q
*CELL DFFQX1
*C2_R1_C1 6.849e-03 5.667e-06 6.849e-03 
*LOADS
*RC U1245:A 7.762e-08
*END

*R_NET coord_v\[6\] 7.455e-02
*DRIVER coord_v_reg\[6\]:Q
*CELL DFFQX1
*C2_R1_C1 3.727e-02 3.400e-05 3.727e-02 
*LOADS
*RC U1106:B 7.093e-08
*RC U1387:A 7.299e-08
*RC U1395:B 7.093e-08
*RC U1417:A 7.082e-08
*RC U1785:B0 6.584e-08
*RC U1838:B 7.093e-08
*END

*R_NET coord_v\[5\] 9.969e-02
*DRIVER coord_v_reg\[5\]:Q
*CELL DFFQX2
*C2_R1_C1 4.984e-02 4.533e-05 4.984e-02 
*LOADS
*RC U1116:B 6.682e-08
*RC U1162:A 7.299e-08
*RC U1394:B 7.357e-08
*RC U1404:A 7.082e-08
*RC U1423:B 7.357e-08
*RC U1783:A0N 6.265e-08
*RC U1784:B 7.093e-08
*RC U1837:B 7.357e-08
*END

*R_NET coord_v\[4\] 8.483e-02
*DRIVER coord_v_reg\[4\]:Q
*CELL DFFQX1
*C2_R1_C1 4.241e-02 3.967e-05 4.241e-02 
*LOADS
*RC U1179:B 6.530e-08
*RC U1178:B 6.527e-08
*RC U1388:B 6.479e-08
*RC U1400:B 7.319e-08
*RC U1403:A 7.082e-08
*RC U1424:B 7.357e-08
*RC U1829:B0 6.776e-08
*END

*R_NET coord_v\[3\] 7.634e-02
*DRIVER coord_v_reg\[3\]:Q
*CELL DFFQX1
*C2_R1_C1 3.817e-02 3.400e-05 3.817e-02 
*LOADS
*RC U1130:B 7.319e-08
*RC U1162:B 7.093e-08
*RC U1401:B 7.319e-08
*RC U1415:A 7.082e-08
*RC U1429:B 7.319e-08
*RC U1775:B 7.131e-08
*END

*R_NET coord_v\[2\] 8.420e-02
*DRIVER coord_v_reg\[2\]:Q
*CELL DFFQX1
*C2_R1_C1 4.210e-02 3.967e-05 4.210e-02 
*LOADS
*RC U1168:B 6.527e-08
*RC U1388:A 6.646e-08
*RC U1406:A 7.082e-08
*RC U1425:B 7.357e-08
*RC U1839:B 6.530e-08
*RC U1867:S0 7.200e-08
*RC U1868:B0 6.372e-08
*END

*R_NET coord_v\[1\] 1.352e-01
*DRIVER coord_v_reg\[1\]:Q
*CELL DFFQX2
*C2_R1_C1 6.762e-02 6.233e-05 6.762e-02 
*LOADS
*RC U1387:B 7.093e-08
*RC U1396:B 7.357e-08
*RC U1408:A1 6.632e-08
*RC U1409:A 7.278e-08
*RC U1410:A 6.496e-08
*RC U1426:B 7.319e-08
*RC U1790:A 7.278e-08
*RC U1791:A1 6.869e-08
*RC U1841:B 7.319e-08
*RC U1867:B 6.454e-08
*RC U1875:A0 6.542e-08
*END

*R_NET coord_v\[0\] 6.352e-02
*DRIVER coord_v_reg\[0\]:Q
*CELL DFFQX1
*C2_R1_C1 3.176e-02 2.833e-05 3.176e-02 
*LOADS
*RC U839:A 7.082e-08
*RC U1006:B 7.332e-08
*RC U1390:B 7.093e-08
*RC U1397:B 7.357e-08
*RC U1409:B 7.131e-08
*END

*R_NET coord_h\[6\] 2.501e-02
*DRIVER coord_h_reg\[6\]:Q
*CELL DFFQX1
*C2_R1_C1 1.251e-02 1.133e-05 1.251e-02 
*LOADS
*RC U1375:B 7.093e-08
*RC U1384:A 7.082e-08
*END

*R_NET coord_h\[5\] 1.211e-02
*DRIVER coord_h_reg\[5\]:Q
*CELL DFFQX1
*C2_R1_C1 6.056e-03 5.667e-06 6.056e-03 
*LOADS
*RC U837:A 6.864e-08
*END

*R_NET coord_h\[4\] 1.016e-01
*DRIVER coord_h_reg\[4\]:Q
*CELL DFFQX2
*C2_R1_C1 5.078e-02 4.533e-05 5.078e-02 
*LOADS
*RC U992:A0 7.495e-08
*RC U1072:S0 7.900e-08
*RC U1150:B 6.682e-08
*RC U1159:A 6.945e-08
*RC U1160:B 7.093e-08
*RC U1376:B 7.357e-08
*RC U1433:B 7.319e-08
*RC U1645:A0 6.765e-08
*END

*R_NET coord_h\[3\] 9.927e-02
*DRIVER coord_h_reg\[3\]:Q
*CELL DFFQX2
*C2_R1_C1 4.964e-02 4.533e-05 4.964e-02 
*LOADS
*RC U765:A0N 6.544e-08
*RC U1132:B 7.319e-08
*RC U1158:A 6.945e-08
*RC U1383:A 7.299e-08
*RC U1434:B 7.357e-08
*RC U1646:A0 6.765e-08
*RC U1779:B 7.131e-08
*RC U1780:A0 6.896e-08
*END

*R_NET coord_h\[2\] 9.807e-02
*DRIVER coord_h_reg\[2\]:Q
*CELL DFFQX2
*C2_R1_C1 4.904e-02 4.533e-05 4.904e-02 
*LOADS
*RC U900:A1 6.733e-08
*RC U1160:A 7.299e-08
*RC U1161:A 6.945e-08
*RC U1377:B 7.357e-08
*RC U1435:B 7.319e-08
*RC U1633:B 6.524e-08
*RC U1642:A0 6.765e-08
*RC U1656:A1 6.632e-08
*END

*R_NET coord_h\[1\] 7.366e-02
*DRIVER coord_h_reg\[1\]:Q
*CELL DFFQX1
*C2_R1_C1 3.683e-02 3.400e-05 3.683e-02 
*LOADS
*RC U868:A 6.646e-08
*RC U900:A0 6.793e-08
*RC U1378:B 7.319e-08
*RC U1436:B 7.319e-08
*RC U1634:A 7.082e-08
*RC U1656:B0 6.584e-08
*END

*R_NET coord_h\[0\] 8.392e-02
*DRIVER coord_h_reg\[0\]:Q
*CELL DFFQX1
*C2_R1_C1 4.196e-02 3.967e-05 4.196e-02 
*LOADS
*RC U868:B 6.479e-08
*RC U1079:B 6.682e-08
*RC U1379:B 7.357e-08
*RC U1633:A 6.644e-08
*RC U1652:B 7.093e-08
*RC U1655:A 6.945e-08
*RC U1870:A1 6.356e-08
*END

*R_NET rem_v\[6\] 2.485e-02
*DRIVER rem_v_reg\[6\]:Q
*CELL DFFQX1
*C2_R1_C1 1.243e-02 1.133e-05 1.243e-02 
*LOADS
*RC U1555:B0 7.588e-08
*RC U1744:A 6.496e-08
*END

*R_NET rem_v\[5\] 2.453e-02
*DRIVER rem_v_reg\[5\]:Q
*CELL DFFQX1
*C2_R1_C1 1.226e-02 1.133e-05 1.226e-02 
*LOADS
*RC U1555:C0 7.404e-08
*RC U1742:A 6.496e-08
*END

*R_NET rem_v\[4\] 2.536e-02
*DRIVER rem_v_reg\[4\]:Q
*CELL DFFQX1
*C2_R1_C1 1.268e-02 1.133e-05 1.268e-02 
*LOADS
*RC U1554:A 6.945e-08