*SPEF "IEEE 1481-1999"
*DESIGN "Cubic_engine"
*DATE "Sat Aug 23 23:20:23 2025"
*VENDOR "SYNOPSYS INC"
*PROGRAM "Synopsys Design Compiler cmos"
*VERSION "W-2024.09-SP2"
*DESIGN_FLOW "SYNTHESIS"
*DIVIDER /
*DELIMITER :
*BUS_DELIMITER []
*T_UNIT 1.0 NS
*C_UNIT 1.0 PF
*R_UNIT 1.0 KOHM
*L_UNIT 1.0 HENRY

*PORTS

clk I *L 0.000e+00 *S 1.062e-01 1.062e-01 
rst I *L 0.000e+00 *S 1.889e-02 1.889e-02 
X_in\[23\] I *L 0.000e+00 *S 1.144e-03 1.144e-03 
X_in\[22\] I *L 0.000e+00 *S 1.144e-03 1.144e-03 
X_in\[21\] I *L 0.000e+00 *S 1.144e-03 1.144e-03 
X_in\[20\] I *L 0.000e+00 *S 1.144e-03 1.144e-03 
X_in\[19\] I *L 0.000e+00 *S 1.144e-03 1.144e-03 
X_in\[18\] I *L 0.000e+00 *S 1.144e-03 1.144e-03 
X_in\[17\] I *L 0.000e+00 *S 1.144e-03 1.144e-03 
X_in\[16\] I *L 0.000e+00 *S 1.144e-03 1.144e-03 
X_in\[15\] I *L 0.000e+00 *S 1.144e-03 1.144e-03 
X_in\[14\] I *L 0.000e+00 *S 1.144e-03 1.144e-03 
X_in\[13\] I *L 0.000e+00 *S 1.144e-03 1.144e-03 
X_in\[12\] I *L 0.000e+00 *S 1.144e-03 1.144e-03 
X_in\[11\] I *L 0.000e+00 *S 1.144e-03 1.144e-03 
X_in\[10\] I *L 0.000e+00 *S 1.144e-03 1.144e-03 
X_in\[9\] I *L 0.000e+00 *S 1.144e-03 1.144e-03 
X_in\[8\] I *L 0.000e+00 *S 1.144e-03 1.144e-03 
X_in\[7\] I *L 0.000e+00 *S 1.144e-03 1.144e-03 
X_in\[6\] I *L 0.000e+00 *S 1.144e-03 1.144e-03 
X_in\[5\] I *L 0.000e+00 *S 1.144e-03 1.144e-03 
X_in\[4\] I *L 0.000e+00 *S 1.144e-03 1.144e-03 
X_in\[3\] I *L 0.000e+00 *S 1.144e-03 1.144e-03 
X_in\[2\] I *L 0.000e+00 *S 1.144e-03 1.144e-03 
X_in\[1\] I *L 0.000e+00 *S 1.144e-03 1.144e-03 
X_in\[0\] I *L 0.000e+00 *S 1.144e-03 1.144e-03 
P_in\[7\] I *L 0.000e+00 *S 4.498e-03 4.498e-03 
P_in\[6\] I *L 0.000e+00 *S 4.492e-03 4.492e-03 
P_in\[5\] I *L 0.000e+00 *S 4.492e-03 4.492e-03 
P_in\[4\] I *L 0.000e+00 *S 4.492e-03 4.492e-03 
P_in\[3\] I *L 0.000e+00 *S 4.492e-03 4.492e-03 
P_in\[2\] I *L 0.000e+00 *S 4.492e-03 4.492e-03 
P_in\[1\] I *L 0.000e+00 *S 4.492e-03 4.492e-03 
P_in\[0\] I *L 0.000e+00 *S 4.492e-03 4.492e-03 
cycle_cnt\[2\] I *L 0.000e+00 *S 3.892e-03 3.892e-03 
cycle_cnt\[1\] I *L 0.000e+00 *S 4.716e-03 4.716e-03 
cycle_cnt\[0\] I *L 0.000e+00 *S 8.617e-03 8.617e-03 
out\[7\] O *L 1.000e+00 *S 5.876e-01 4.054e-01 
out\[6\] O *L 1.000e+00 *S 5.876e-01 4.054e-01 
out\[5\] O *L 1.000e+00 *S 5.876e-01 4.054e-01 
out\[4\] O *L 1.000e+00 *S 5.876e-01 4.054e-01 
out\[3\] O *L 1.000e+00 *S 5.876e-01 4.054e-01 
out\[2\] O *L 1.000e+00 *S 5.876e-01 4.054e-01 
out\[1\] O *L 1.000e+00 *S 5.876e-01 4.054e-01 
out\[0\] O *L 1.000e+00 *S 5.876e-01 4.054e-01 

*R_NET clk 1.062e+00
*DRIVER clk
*CELL NULL
*C2_R1_C1 5.309e-01 5.100e-04 5.309e-01 
*LOADS
*RC P_reg\[2\]\[0\]:CK 6.681e-08
*RC U535:A 6.864e-08
*RC U536:A 6.864e-08
*RC XCP_reg\[0\]:CK 6.681e-08
*RC XCP_reg\[1\]:CK 6.681e-08
*RC XCP_reg\[2\]:CK 6.681e-08
*RC XCP_reg\[3\]:CK 6.681e-08
*RC XCP_reg\[4\]:CK 6.681e-08
*RC XCP_reg\[5\]:CK 6.681e-08
*RC XCP_reg\[6\]:CK 6.681e-08
*RC XCP_reg\[7\]:CK 6.681e-08
*RC P_reg\[2\]\[1\]:CK 6.681e-08
*RC P_reg\[2\]\[2\]:CK 6.681e-08
*RC P_reg\[2\]\[3\]:CK 6.681e-08
*RC P_reg\[2\]\[4\]:CK 6.681e-08
*RC P_reg\[2\]\[5\]:CK 6.681e-08
*RC P_reg\[2\]\[6\]:CK 6.681e-08
*RC P_reg\[2\]\[7\]:CK 6.681e-08
*RC P_reg\[1\]\[0\]:CK 6.681e-08
*RC P_reg\[1\]\[1\]:CK 6.681e-08
*RC P_reg\[1\]\[2\]:CK 6.681e-08
*RC P_reg\[1\]\[3\]:CK 6.681e-08
*RC P_reg\[1\]\[4\]:CK 6.681e-08
*RC P_reg\[1\]\[5\]:CK 6.681e-08
*RC P_reg\[1\]\[6\]:CK 6.681e-08
*RC P_reg\[1\]\[7\]:CK 6.681e-08
*RC P_reg\[0\]\[0\]:CK 6.681e-08
*RC P_reg\[0\]\[1\]:CK 6.681e-08
*RC P_reg\[0\]\[2\]:CK 6.681e-08
*RC P_reg\[0\]\[3\]:CK 6.681e-08
*RC P_reg\[0\]\[4\]:CK 6.681e-08
*RC P_reg\[0\]\[5\]:CK 6.681e-08
*RC P_reg\[0\]\[6\]:CK 6.681e-08
*RC P_reg\[0\]\[7\]:CK 6.681e-08
*RC P_reg\[3\]\[0\]:CK 6.681e-08
*RC P_reg\[3\]\[1\]:CK 6.681e-08
*RC P_reg\[3\]\[2\]:CK 6.681e-08
*RC P_reg\[3\]\[3\]:CK 6.681e-08
*RC P_reg\[3\]\[4\]:CK 6.681e-08
*RC P_reg\[3\]\[5\]:CK 6.681e-08
*RC P_reg\[3\]\[6\]:CK 6.681e-08
*RC P_reg\[3\]\[7\]:CK 6.681e-08
*RC XC_reg\[0\]\[1\]:CK 6.681e-08
*RC XC_reg\[3\]\[0\]:CK 6.681e-08
*RC XC_reg\[3\]\[2\]:CK 6.681e-08
*RC X_reg\[2\]\[0\]:CK 6.681e-08
*RC X_reg\[2\]\[1\]:CK 6.681e-08
*RC X_reg\[2\]\[2\]:CK 6.681e-08
*RC X_reg\[2\]\[3\]:CK 6.681e-08
*RC X_reg\[2\]\[4\]:CK 6.681e-08
*RC X_reg\[2\]\[5\]:CK 6.681e-08
*RC X_reg\[2\]\[6\]:CK 6.681e-08
*RC X_reg\[2\]\[7\]:CK 6.681e-08
*RC X_reg\[1\]\[0\]:CK 6.681e-08
*RC X_reg\[1\]\[1\]:CK 6.681e-08
*RC X_reg\[1\]\[2\]:CK 6.681e-08
*RC X_reg\[1\]\[3\]:CK 6.681e-08
*RC X_reg\[1\]\[4\]:CK 6.681e-08
*RC X_reg\[1\]\[5\]:CK 6.681e-08
*RC X_reg\[1\]\[6\]:CK 6.681e-08
*RC X_reg\[1\]\[7\]:CK 6.681e-08
*RC X_reg\[0\]\[0\]:CK 6.681e-08
*RC X_reg\[0\]\[1\]:CK 6.681e-08
*RC X_reg\[0\]\[2\]:CK 6.681e-08
*RC X_reg\[0\]\[3\]:CK 6.681e-08
*RC X_reg\[0\]\[4\]:CK 6.681e-08
*RC X_reg\[0\]\[5\]:CK 6.681e-08
*RC X_reg\[0\]\[6\]:CK 6.681e-08
*RC X_reg\[0\]\[7\]:CK 6.681e-08
*RC XC_reg\[0\]\[0\]:CK 6.681e-08
*RC XC_reg\[3\]\[1\]:CK 6.681e-08
*RC XC_reg\[1\]\[3\]:CK 6.681e-08
*RC XC_reg\[1\]\[4\]:CK 6.681e-08
*RC XC_reg\[1\]\[5\]:CK 6.681e-08
*RC XC_reg\[1\]\[6\]:CK 6.681e-08
*RC XC_reg\[1\]\[7\]:CK 6.681e-08
*RC XC_reg\[1\]\[8\]:CK 6.681e-08
*RC XC_reg\[1\]\[9\]:CK 6.681e-08
*RC XC_reg\[1\]\[10\]:CK 6.681e-08
*RC XC_reg\[1\]\[11\]:CK 6.681e-08
*RC XC_reg\[0\]\[2\]:CK 6.681e-08
*RC XC_reg\[0\]\[3\]:CK 6.681e-08
*RC XC_reg\[0\]\[4\]:CK 6.681e-08
*RC XC_reg\[0\]\[5\]:CK 6.681e-08
*RC XC_reg\[0\]\[6\]:CK 6.681e-08
*RC XC_reg\[0\]\[7\]:CK 6.681e-08
*RC XC_reg\[0\]\[8\]:CK 6.681e-08
*RC XC_reg\[0\]\[9\]:CK 6.681e-08
*RC XC_reg\[0\]\[10\]:CK 6.681e-08
*RC XC_reg\[0\]\[11\]:CK 6.681e-08
*END

*R_NET rst 1.889e-01
*DRIVER rst
*CELL NULL
*C2_R1_C1 9.447e-02 5.667e-05 9.447e-02 
*LOADS
*RC U857:A 6.646e-08
*RC U859:A 6.496e-08
*RC U979:A 1.174e-07
*RC U980:A 1.174e-07
*RC U1010:A 1.174e-07
*RC U1011:A 1.174e-07
*RC U1040:A 1.174e-07
*RC U1041:A 1.174e-07
*RC U1069:A 1.174e-07
*RC U1070:A 1.174e-07
*END

*R_NET X_in\[23\] 1.144e-02
*DRIVER X_in\[23\]
*CELL NULL
*C2_R1_C1 5.718e-03 5.667e-06 5.718e-03 
*LOADS
*RC U1039:A1 6.480e-08
*END

*R_NET X_in\[22\] 1.144e-02
*DRIVER X_in\[22\]
*CELL NULL
*C2_R1_C1 5.718e-03 5.667e-06 5.718e-03 
*LOADS
*RC U1043:A1 6.480e-08
*END

*R_NET X_in\[21\] 1.144e-02
*DRIVER X_in\[21\]
*CELL NULL
*C2_R1_C1 5.718e-03 5.667e-06 5.718e-03 
*LOADS
*RC U1045:A1 6.480e-08
*END

*R_NET X_in\[20\] 1.144e-02
*DRIVER X_in\[20\]
*CELL NULL
*C2_R1_C1 5.718e-03 5.667e-06 5.718e-03 
*LOADS
*RC U1047:A1 6.480e-08
*END

*R_NET X_in\[19\] 1.144e-02
*DRIVER X_in\[19\]
*CELL NULL
*C2_R1_C1 5.718e-03 5.667e-06 5.718e-03 
*LOADS
*RC U1049:A1 6.480e-08
*END

*R_NET X_in\[18\] 1.144e-02
*DRIVER X_in\[18\]
*CELL NULL
*C2_R1_C1 5.718e-03 5.667e-06 5.718e-03 
*LOADS
*RC U1051:A1 6.480e-08
*END

*R_NET X_in\[17\] 1.144e-02
*DRIVER X_in\[17\]
*CELL NULL
*C2_R1_C1 5.718e-03 5.667e-06 5.718e-03 
*LOADS
*RC U1053:A1 6.480e-08
*END

*R_NET X_in\[16\] 1.144e-02
*DRIVER X_in\[16\]
*CELL NULL
*C2_R1_C1 5.718e-03 5.667e-06 5.718e-03 
*LOADS
*RC U1055:A1 6.480e-08
*END

*R_NET X_in\[15\] 1.144e-02
*DRIVER X_in\[15\]
*CELL NULL
*C2_R1_C1 5.718e-03 5.667e-06 5.718e-03 
*LOADS
*RC U1009:A1 6.480e-08
*END

*R_NET X_in\[14\] 1.144e-02
*DRIVER X_in\[14\]
*CELL NULL
*C2_R1_C1 5.718e-03 5.667e-06 5.718e-03 
*LOADS
*RC U1013:A1 6.480e-08
*END

*R_NET X_in\[13\] 1.144e-02
*DRIVER X_in\[13\]
*CELL NULL
*C2_R1_C1 5.718e-03 5.667e-06 5.718e-03 
*LOADS
*RC U1015:A1 6.480e-08
*END

*R_NET X_in\[12\] 1.144e-02
*DRIVER X_in\[12\]
*CELL NULL
*C2_R1_C1 5.718e-03 5.667e-06 5.718e-03 
*LOADS
*RC U1017:A1 6.480e-08
*END

*R_NET X_in\[11\] 1.144e-02
*DRIVER X_in\[11\]
*CELL NULL
*C2_R1_C1 5.718e-03 5.667e-06 5.718e-03 
*LOADS
*RC U1019:A1 6.480e-08
*END

*R_NET X_in\[10\] 1.144e-02
*DRIVER X_in\[10\]
*CELL NULL
*C2_R1_C1 5.718e-03 5.667e-06 5.718e-03 
*LOADS
*RC U1021:A1 6.480e-08
*END

*R_NET X_in\[9\] 1.144e-02
*DRIVER X_in\[9\]
*CELL NULL
*C2_R1_C1 5.718e-03 5.667e-06 5.718e-03 
*LOADS
*RC U1023:A1 6.480e-08
*END

*R_NET X_in\[8\] 1.144e-02
*DRIVER X_in\[8\]
*CELL NULL
*C2_R1_C1 5.718e-03 5.667e-06 5.718e-03 
*LOADS
*RC U1025:A1 6.480e-08
*END

*R_NET X_in\[7\] 1.144e-02
*DRIVER X_in\[7\]
*CELL NULL
*C2_R1_C1 5.718e-03 5.667e-06 5.718e-03 
*LOADS
*RC U978:A1 6.480e-08
*END

*R_NET X_in\[6\] 1.144e-02
*DRIVER X_in\[6\]
*CELL NULL
*C2_R1_C1 5.718e-03 5.667e-06 5.718e-03 
*LOADS
*RC U982:A1 6.480e-08
*END

*R_NET X_in\[5\] 1.144e-02
*DRIVER X_in\[5\]
*CELL NULL
*C2_R1_C1 5.718e-03 5.667e-06 5.718e-03 
*LOADS
*RC U985:A1 6.480e-08
*END

*R_NET X_in\[4\] 1.144e-02
*DRIVER X_in\[4\]
*CELL NULL
*C2_R1_C1 5.718e-03 5.667e-06 5.718e-03 
*LOADS
*RC U987:A1 6.480e-08
*END

*R_NET X_in\[3\] 1.144e-02
*DRIVER X_in\[3\]
*CELL NULL
*C2_R1_C1 5.718e-03 5.667e-06 5.718e-03 
*LOADS
*RC U989:A1 6.480e-08
*END

*R_NET X_in\[2\] 1.144e-02
*DRIVER X_in\[2\]
*CELL NULL
*C2_R1_C1 5.718e-03 5.667e-06 5.718e-03 
*LOADS
*RC U991:A1 6.480e-08
*END

*R_NET X_in\[1\] 1.144e-02
*DRIVER X_in\[1\]
*CELL NULL
*C2_R1_C1 5.718e-03 5.667e-06 5.718e-03 
*LOADS
*RC U993:A1 6.480e-08
*END

*R_NET X_in\[0\] 1.144e-02
*DRIVER X_in\[0\]
*CELL NULL
*C2_R1_C1 5.718e-03 5.667e-06 5.718e-03 
*LOADS
*RC U995:A1 6.480e-08
*END

*R_NET P_in\[7\] 4.498e-02
*DRIVER P_in\[7\]
*CELL NULL
*C2_R1_C1 2.249e-02 2.267e-05 2.249e-02 
*LOADS
*RC U981:B0 6.372e-08
*RC U1012:B0 6.372e-08
*RC U1042:B0 6.372e-08
*RC U1071:B0 6.372e-08
*END

*R_NET P_in\[6\] 4.492e-02
*DRIVER P_in\[6\]
*CELL NULL
*C2_R1_C1 2.246e-02 2.267e-05 2.246e-02 
*LOADS
*RC U983:B1 6.338e-08
*RC U1014:B0 6.372e-08
*RC U1044:B0 6.372e-08
*RC U1072:B0 6.372e-08
*END

*R_NET P_in\[5\] 4.492e-02
*DRIVER P_in\[5\]
*CELL NULL
*C2_R1_C1 2.246e-02 2.267e-05 2.246e-02 
*LOADS
*RC U986:B1 6.338e-08
*RC U1016:B0 6.372e-08
*RC U1046:B0 6.372e-08
*RC U1073:B0 6.372e-08
*END

*R_NET P_in\[4\] 4.492e-02
*DRIVER P_in\[4\]
*CELL NULL
*C2_R1_C1 2.246e-02 2.267e-05 2.246e-02 
*LOADS
*RC U988:B1 6.338e-08
*RC U1018:B0 6.372e-08
*RC U1048:B0 6.372e-08
*RC U1074:B0 6.372e-08
*END

*R_NET P_in\[3\] 4.492e-02
*DRIVER P_in\[3\]
*CELL NULL
*C2_R1_C1 2.246e-02 2.267e-05 2.246e-02 
*LOADS
*RC U990:B1 6.338e-08
*RC U1020:B0 6.372e-08
*RC U1050:B0 6.372e-08
*RC U1075:B0 6.372e-08
*END

*R_NET P_in\[2\] 4.492e-02
*DRIVER P_in\[2\]
*CELL NULL
*C2_R1_C1 2.246e-02 2.267e-05 2.246e-02 
*LOADS
*RC U992:B1 6.338e-08
*RC U1022:B0 6.372e-08
*RC U1052:B0 6.372e-08
*RC U1076:B0 6.372e-08
*END

*R_NET P_in\[1\] 4.492e-02
*DRIVER P_in\[1\]
*CELL NULL
*C2_R1_C1 2.246e-02 2.267e-05 2.246e-02 
*LOADS
*RC U994:B1 6.338e-08
*RC U1024:B0 6.372e-08
*RC U1054:B0 6.372e-08
*RC U1077:B0 6.372e-08
*END

*R_NET P_in\[0\] 4.492e-02
*DRIVER P_in\[0\]
*CELL NULL
*C2_R1_C1 2.246e-02 2.267e-05 2.246e-02 
*LOADS
*RC U996:B1 6.338e-08
*RC U1026:B0 6.372e-08
*RC U1056:B0 6.372e-08
*RC U1078:B0 6.372e-08
*END

*R_NET cycle_cnt\[2\] 3.892e-02
*DRIVER cycle_cnt\[2\]
*CELL NULL
*C2_R1_C1 1.946e-02 1.700e-05 1.946e-02 
*LOADS
*RC U183:B 9.110e-08
*RC U187:B0 6.448e-08
*RC U211:A 6.496e-08
*END

*R_NET cycle_cnt\[1\] 4.716e-02
*DRIVER cycle_cnt\[1\]
*CELL NULL
*C2_R1_C1 2.358e-02 2.267e-05 2.358e-02 
*LOADS
*RC U187:A1 6.398e-08
*RC U210:A 6.496e-08
*RC U216:B 7.393e-08
*RC U217:A 6.435e-08
*END

*R_NET cycle_cnt\[0\] 8.617e-02
*DRIVER cycle_cnt\[0\]
*CELL NULL
*C2_R1_C1 4.308e-02 3.400e-05 4.308e-02 
*LOADS
*RC U183:A 8.773e-08
*RC U186:AN 8.050e-08
*RC U187:A0 6.415e-08
*RC U213:A 1.174e-07
*RC U216:A 7.345e-08
*RC U217:B 6.503e-08
*END

*R_NET n699 1.226e-02
*DRIVER XCP_reg\[7\]:Q
*CELL DFFQX1
*C2_R1_C1 6.128e-03 5.667e-06 6.128e-03 
*LOADS
*RC U190:A 6.945e-08
*END

*R_NET n700 1.226e-02
*DRIVER XCP_reg\[6\]:Q
*CELL DFFQX1
*C2_R1_C1 6.128e-03 5.667e-06 6.128e-03 
*LOADS
*RC U192:A 6.945e-08
*END

*R_NET n701 1.226e-02
*DRIVER XCP_reg\[5\]:Q
*CELL DFFQX1
*C2_R1_C1 6.128e-03 5.667e-06 6.128e-03 
*LOADS
*RC U194:A 6.945e-08
*END

*R_NET n702 1.226e-02
*DRIVER XCP_reg\[4\]:Q
*CELL DFFQX1
*C2_R1_C1 6.128e-03 5.667e-06 6.128e-03 
*LOADS
*RC U196:A 6.945e-08
*END

*R_NET n703 1.226e-02
*DRIVER XCP_reg\[3\]:Q
*CELL DFFQX1
*C2_R1_C1 6.128e-03 5.667e-06 6.128e-03 
*LOADS
*RC U198:A 6.945e-08
*END

*R_NET n704 1.226e-02
*DRIVER XCP_reg\[2\]:Q
*CELL DFFQX1
*C2_R1_C1 6.128e-03 5.667e-06 6.128e-03 
*LOADS
*RC U200:A 6.945e-08
*END

*R_NET n705 1.226e-02
*DRIVER XCP_reg\[1\]:Q
*CELL DFFQX1
*C2_R1_C1 6.128e-03 5.667e-06 6.128e-03 
*LOADS
*RC U202:A 6.945e-08
*END

*R_NET n706 1.226e-02
*DRIVER XCP_reg\[0\]:Q
*CELL DFFQX1
*C2_R1_C1 6.128e-03 5.667e-06 6.128e-03 
*LOADS
*RC U204:A 6.945e-08
*END

*R_NET adder1\[21\] 1.528e-02
*DRIVER adder1_reg\[21\]:Q
*CELL TLATX1
*C2_R1_C1 7.640e-03 5.667e-06 7.640e-03 
*LOADS
*RC U861:A 8.658e-08
*END

*R_NET adder1\[20\] 1.153e-02
*DRIVER adder1_reg\[20\]:Q
*CELL TLATX1
*C2_R1_C1 5.767e-03 5.667e-06 5.767e-03 
*LOADS
*RC U873:A 6.536e-08
*END

*R_NET adder1\[19\] 2.399e-02
*DRIVER adder1_reg\[19\]:Q
*CELL TLATX1
*C2_R1_C1 1.199e-02 1.133e-05 1.199e-02 
*LOADS
*RC U874:A 6.818e-08
*RC U875:B0 6.776e-08
*END

*R_NET adder1\[18\] 2.371e-02
*DRIVER adder1_reg\[18\]:Q
*CELL TLATX1
*C2_R1_C1 1.186e-02 1.133e-05 1.186e-02 
*LOADS
*RC U873:D 6.607e-08
*RC U874:D 6.829e-08
*END

*R_NET adder1\[17\] 2.367e-02
*DRIVER adder1_reg\[17\]:Q
*CELL TLATX1
*C2_R1_C1 1.183e-02 1.133e-05 1.183e-02 
*LOADS
*RC U873:C 6.573e-08
*RC U874:C 6.839e-08
*END

*R_NET adder1\[16\] 2.310e-02
*DRIVER adder1_reg\[16\]:Q
*CELL TLATX1
*C2_R1_C1 1.155e-02 1.133e-05 1.155e-02 
*LOADS
*RC U872:AN 6.297e-08
*RC U883:A0 6.793e-08
*END

*R_NET adder1\[15\] 2.340e-02
*DRIVER adder1_reg\[15\]:Q
*CELL TLATX1
*C2_R1_C1 1.170e-02 1.133e-05 1.170e-02 
*LOADS
*RC U871:B 6.524e-08
*RC U885:A1 6.733e-08
*END

*R_NET adder1\[14\] 2.299e-02
*DRIVER adder1_reg\[14\]:Q
*CELL TLATX1
*C2_R1_C1 1.150e-02 1.133e-05 1.150e-02 
*LOADS
*RC U870:AN 6.297e-08
*RC U889:A1 6.733e-08
*END

*R_NET adder1\[13\] 2.340e-02
*DRIVER adder1_reg\[13\]:Q
*CELL TLATX1
*C2_R1_C1 1.170e-02 1.133e-05 1.170e-02 
*LOADS
*RC U869:B 6.524e-08
*RC U895:A1 6.733e-08
*END

*R_NET adder1\[12\] 2.299e-02
*DRIVER adder1_reg\[12\]:Q
*CELL TLATX1
*C2_R1_C1 1.150e-02 1.133e-05 1.150e-02 
*LOADS
*RC U868:AN 6.297e-08
*RC U899:A1 6.733e-08
*END

*R_NET adder1\[11\] 6.958e-02
*DRIVER adder1_reg\[11\]:Q
*CELL TLATX1
*C2_R1_C1 3.479e-02 3.400e-05 3.479e-02 
*LOADS
*RC U867:B 6.524e-08
*RC U901:A1 6.733e-08
*RC U997:A0 6.542e-08
*RC U1027:A0 6.542e-08
*RC U1057:A0 6.542e-08
*RC U1079:A0 6.542e-08
*END

*R_NET adder1\[10\] 5.806e-02
*DRIVER adder1_reg\[10\]:Q
*CELL TLATX1
*C2_R1_C1 2.903e-02 2.833e-05 2.903e-02 
*LOADS
*RC U893:A1 6.733e-08
*RC U998:A0 6.542e-08
*RC U1028:A0 6.542e-08
*RC U1058:A0 6.542e-08
*RC U1080:A0 6.542e-08
*END

*R_NET adder1\[9\] 6.958e-02
*DRIVER adder1_reg\[9\]:Q
*CELL TLATX1
*C2_R1_C1 3.479e-02 3.400e-05 3.479e-02 
*LOADS
*RC U865:B 6.524e-08
*RC U876:A1 6.733e-08
*RC U999:A0 6.542e-08
*RC U1029:A0 6.542e-08
*RC U1059:A0 6.542e-08
*RC U1081:A0 6.542e-08
*END

*R_NET adder1\[8\] 4.618e-02
*DRIVER adder1_reg\[8\]:Q
*CELL TLATX1
*C2_R1_C1 2.309e-02 2.267e-05 2.309e-02 
*LOADS
*RC U1000:A0 6.542e-08
*RC U1030:A0 6.542e-08
*RC U1060:A0 6.542e-08
*RC U1082:A0 6.542e-08
*END

*R_NET adder1\[7\] 4.618e-02
*DRIVER adder1_reg\[7\]:Q
*CELL TLATX1
*C2_R1_C1 2.309e-02 2.267e-05 2.309e-02 
*LOADS
*RC U1001:A0 6.542e-08
*RC U1031:A0 6.542e-08
*RC U1061:A0 6.542e-08
*RC U1083:A0 6.542e-08
*END

*R_NET adder1\[6\] 5.807e-02
*DRIVER adder1_reg\[6\]:Q
*CELL TLATX1
*C2_R1_C1 2.904e-02 2.833e-05 2.904e-02 
*LOADS
*RC U863:A 6.738e-08
*RC U1002:A0 6.542e-08
*RC U1032:A0 6.542e-08
*RC U1062:A0 6.542e-08
*RC U1084:A0 6.542e-08
*END

*R_NET adder1\[5\] 5.815e-02
*DRIVER adder1_reg\[5\]:Q
*CELL TLATX1
*C2_R1_C1 2.907e-02 2.833e-05 2.907e-02 
*LOADS
*RC U862:C 6.781e-08
*RC U1003:A0 6.542e-08
*RC U1033:A0 6.542e-08
*RC U1063:A0 6.542e-08
*RC U1085:A0 6.542e-08
*END

*R_NET adder1\[4\] 5.789e-02
*DRIVER adder1_reg\[4\]:Q
*CELL TLATX1
*C2_R1_C1 2.894e-02 2.833e-05 2.894e-02 
*LOADS
*RC U862:D 6.635e-08
*RC U1004:A0 6.542e-08
*RC U1034:A0 6.542e-08
*RC U1064:A0 6.542e-08
*RC U1086:A0 6.542e-08
*END

*R_NET adder1\[3\] 5.828e-02
*DRIVER adder1_reg\[3\]:Q
*CELL TLATX1
*C2_R1_C1 2.914e-02 2.833e-05 2.914e-02 
*LOADS
*RC U862:A 6.857e-08
*RC U1005:A0 6.542e-08
*RC U1035:A0 6.542e-08
*RC U1065:A0 6.542e-08
*RC U1087:A0 6.542e-08
*END

*R_NET adder1\[2\] 5.815e-02
*DRIVER adder1_reg\[2\]:Q
*CELL TLATX1
*C2_R1_C1 2.907e-02 2.833e-05 2.907e-02 
*LOADS
*RC U862:B 6.782e-08
*RC U1006:A0 6.542e-08
*RC U1036:A0 6.542e-08
*RC U1066:A0 6.542e-08
*RC U1088:A0 6.542e-08
*END

*R_NET adder1\[1\] 5.797e-02
*DRIVER adder1_reg\[1\]:Q
*CELL TLATX1
*C2_R1_C1 2.899e-02 2.833e-05 2.899e-02 
*LOADS
*RC U863:B 6.682e-08
*RC U1007:A0 6.542e-08
*RC U1037:A0 6.542e-08
*RC U1067:A0 6.542e-08
*RC U1089:A0 6.542e-08
*END

*R_NET adder1\[0\] 5.781e-02
*DRIVER adder1_reg\[0\]:Q
*CELL TLATX1
*C2_R1_C1 2.891e-02 2.833e-05 2.891e-02 
*LOADS
*RC U863:C 6.592e-08
*RC U1008:A0 6.542e-08
*RC U1038:A0 6.542e-08
*RC U1068:A0 6.542e-08
*RC U1090:A0 6.542e-08
*END

*R_NET X\[0\]\[7\] 2.249e-02
*DRIVER X_reg\[0\]\[7\]:Q
*CELL DFFQX1
*C2_R1_C1 1.125e-02 1.133e-05 1.125e-02 
*LOADS
*RC U221:B0 6.372e-08
*RC U978:B0 6.372e-08
*END

*R_NET X\[0\]\[6\] 2.249e-02
*DRIVER X_reg\[0\]\[6\]:Q
*CELL DFFQX1
*C2_R1_C1 1.125e-02 1.133e-05 1.125e-02 
*LOADS
*RC U220:B0 6.372e-08
*RC U982:B0 6.372e-08
*END

*R_NET X\[0\]\[5\] 2.249e-02
*DRIVER X_reg\[0\]\[5\]:Q
*CELL DFFQX1
*C2_R1_C1 1.125e-02 1.133e-05 1.125e-02 
*LOADS
*RC U224:B0 6.372e-08
*RC U985:B0 6.372e-08
*END

*R_NET X\[0\]\[4\] 2.249e-02
*DRIVER X_reg\[0\]\[4\]:Q
*CELL DFFQX1
*C2_R1_C1 1.125e-02 1.133e-05 1.125e-02 
*LOADS
*RC U381:B0 6.372e-08
*RC U987:B0 6.372e-08
*END

*R_NET X\[0\]\[3\] 2.249e-02
*DRIVER X_reg\[0\]\[3\]:Q
*CELL DFFQX1
*C2_R1_C1 1.125e-02 1.133e-05 1.125e-02 
*LOADS
*RC U383:B0 6.372e-08
*RC U989:B0 6.372e-08
*END

*R_NET X\[0\]\[2\] 2.249e-02
*DRIVER X_reg\[0\]\[2\]:Q
*CELL DFFQX1
*C2_R1_C1 1.125e-02 1.133e-05 1.125e-02 
*LOADS
*RC U415:B0 6.372e-08
*RC U991:B0 6.372e-08
*END

*R_NET X\[0\]\[1\] 2.249e-02
*DRIVER X_reg\[0\]\[1\]:Q
*CELL DFFQX1
*C2_R1_C1 1.125e-02 1.133e-05 1.125e-02 
*LOADS
*RC U263:B0 6.372e-08
*RC U993:B0 6.372e-08
*END

*R_NET X\[0\]\[0\] 2.313e-02
*DRIVER X_reg\[0\]\[0\]:Q
*CELL DFFQX1
*C2_R1_C1 1.157e-02 1.133e-05 1.157e-02 
*LOADS
*RC U208:B0 6.737e-08
*RC U995:B0 6.372e-08
*END

*R_NET X\[1\]\[7\] 2.249e-02
*DRIVER X_reg\[1\]\[7\]:Q
*CELL DFFQX1
*C2_R1_C1 1.125e-02 1.133e-05 1.125e-02 
*LOADS
*RC U281:B0 6.372e-08
*RC U1009:B0 6.372e-08
*END

*R_NET X\[1\]\[6\] 2.249e-02
*DRIVER X_reg\[1\]\[6\]:Q
*CELL DFFQX1
*C2_R1_C1 1.125e-02 1.133e-05 1.125e-02 
*LOADS
*RC U314:B0 6.372e-08
*RC U1013:B0 6.372e-08
*END

*R_NET X\[1\]\[5\] 2.249e-02
*DRIVER X_reg\[1\]\[5\]:Q
*CELL DFFQX1
*C2_R1_C1 1.125e-02 1.133e-05 1.125e-02 
*LOADS
*RC U316:B0 6.372e-08
*RC U1015:B0 6.372e-08
*END

*R_NET X\[1\]\[4\] 2.249e-02
*DRIVER X_reg\[1\]\[4\]:Q
*CELL DFFQX1
*C2_R1_C1 1.125e-02 1.133e-05 1.125e-02 
*LOADS
*RC U364:B0 6.372e-08
*RC U1017:B0 6.372e-08
*END

*R_NET X\[1\]\[3\] 2.249e-02
*DRIVER X_reg\[1\]\[3\]:Q
*CELL DFFQX1
*C2_R1_C1 1.125e-02 1.133e-05 1.125e-02 
*LOADS
*RC U366:B0 6.372e-08
*RC U1019:B0 6.372e-08
*END

*R_NET X\[1\]\[2\] 2.249e-02
*DRIVER X_reg\[1\]\[2\]:Q
*CELL DFFQX1
*C2_R1_C1 1.125e-02 1.133e-05 1.125e-02 
*LOADS
*RC U400:B0 6.372e-08
*RC U1021:B0 6.372e-08
*END

*R_NET X\[1\]\[1\] 2.249e-02
*DRIVER X_reg\[1\]\[1\]:Q
*CELL DFFQX1
*C2_R1_C1 1.125e-02 1.133e-05 1.125e-02 
*LOADS
*RC U273:B0 6.372e-08
*RC U1023:B0 6.372e-08
*END

*R_NET X\[1\]\[0\] 2.313e-02
*DRIVER X_reg\[1\]\[0\]:Q
*CELL DFFQX1
*C2_R1_C1 1.157e-02 1.133e-05 1.157e-02 
*LOADS
*RC U207:B0 6.737e-08
*RC U1025:B0 6.372e-08
*END

*R_NET X\[2\]\[7\] 2.249e-02
*DRIVER X_reg\[2\]\[7\]:Q
*CELL DFFQX1
*C2_R1_C1 1.125e-02 1.133e-05 1.125e-02 
*LOADS
*RC U352:B0 6.372e-08
*RC U1039:B0 6.372e-08
*END

*R_NET X\[2\]\[6\] 2.249e-02
*DRIVER X_reg\[2\]\[6\]:Q
*CELL DFFQX1
*C2_R1_C1 1.125e-02 1.133e-05 1.125e-02 
*LOADS
*RC U351:B0 6.372e-08
*RC U1043:B0 6.372e-08
*END

*R_NET X\[2\]\[5\] 2.249e-02
*DRIVER X_reg\[2\]\[5\]:Q
*CELL DFFQX1
*C2_R1_C1 1.125e-02 1.133e-05 1.125e-02 
*LOADS
*RC U301:B0 6.372e-08
*RC U1045:B0 6.372e-08
*END

*R_NET X\[2\]\[4\] 2.249e-02
*DRIVER X_reg\[2\]\[4\]:Q
*CELL DFFQX1
*C2_R1_C1 1.125e-02 1.133e-05 1.125e-02 
*LOADS
*RC U300:B0 6.372e-08
*RC U1047:B0 6.372e-08
*END

*R_NET X\[2\]\[3\] 2.249e-02
*DRIVER X_reg\[2\]\[3\]:Q
*CELL DFFQX1
*C2_R1_C1 1.125e-02 1.133e-05 1.125e-02 
*LOADS
*RC U303:B0 6.372e-08
*RC U1049:B0 6.372e-08
*END

*R_NET X\[2\]\[2\] 2.249e-02
*DRIVER X_reg\[2\]\[2\]:Q
*CELL DFFQX1
*C2_R1_C1 1.125e-02 1.133e-05 1.125e-02 
*LOADS
*RC U326:B0 6.372e-08
*RC U1051:B0 6.372e-08
*END

*R_NET X\[2\]\[1\] 2.249e-02
*DRIVER X_reg\[2\]\[1\]:Q
*CELL DFFQX1
*C2_R1_C1 1.125e-02 1.133e-05 1.125e-02 
*LOADS
*RC U328:B0 6.372e-08
*RC U1053:B0 6.372e-08
*END

*R_NET X\[2\]\[0\] 2.313e-02
*DRIVER X_reg\[2\]\[0\]:Q
*CELL DFFQX1
*C2_R1_C1 1.157e-02 1.133e-05 1.157e-02 
*LOADS
*RC U206:B0 6.737e-08
*RC U1055:B0 6.372e-08
*END

*R_NET XC\[0\]\[11\] 2.226e-02
*DRIVER XC_reg\[0\]\[11\]:Q
*CELL DFFQX1
*C2_R1_C1 1.113e-02 1.133e-05 1.113e-02 
*LOADS
*RC U233:A1N 6.276e-08
*RC U997:B1 6.338e-08
*END

*R_NET XC\[0\]\[10\] 2.226e-02
*DRIVER XC_reg\[0\]\[10\]:Q
*CELL DFFQX1
*C2_R1_C1 1.113e-02 1.133e-05 1.113e-02 
*LOADS
*RC U230:A1N 6.276e-08
*RC U998:B1 6.338e-08
*END

*R_NET XC\[0\]\[9\] 2.226e-02
*DRIVER XC_reg\[0\]\[9\]:Q
*CELL DFFQX1
*C2_R1_C1 1.113e-02 1.133e-05 1.113e-02 
*LOADS
*RC U249:A1N 6.276e-08
*RC U999:B1 6.338e-08
*END

*R_NET XC\[0\]\[8\] 2.226e-02
*DRIVER XC_reg\[0\]\[8\]:Q
*CELL DFFQX1
*C2_R1_C1 1.113e-02 1.133e-05 1.113e-02 
*LOADS
*RC U247:A1N 6.276e-08
*RC U1000:B1 6.338e-08
*END

*R_NET XC\[0\]\[7\] 2.226e-02
*DRIVER XC_reg\[0\]\[7\]:Q
*CELL DFFQX1
*C2_R1_C1 1.113e-02 1.133e-05 1.113e-02 
*LOADS
*RC U437:A1N 6.276e-08
*RC U1001:B1 6.338e-08
*END

*R_NET XC\[0\]\[6\] 2.226e-02
*DRIVER XC_reg\[0\]\[6\]:Q
*CELL DFFQX1
*C2_R1_C1 1.113e-02 1.133e-05 1.113e-02 
*LOADS
*RC U435:A1N 6.276e-08
*RC U1002:B1 6.338e-08
*END

*R_NET XC\[0\]\[5\] 2.226e-02
*DRIVER XC_reg\[0\]\[5\]:Q
*CELL DFFQX1
*C2_R1_C1 1.113e-02 1.133e-05 1.113e-02 
*LOADS
*RC U451:A1N 6.276e-08
*RC U1003:B1 6.338e-08
*END

*R_NET XC\[0\]\[4\] 2.226e-02
*DRIVER XC_reg\[0\]\[4\]:Q
*CELL DFFQX1
*C2_R1_C1 1.113e-02 1.133e-05 1.113e-02 
*LOADS
*RC U269:A1N 6.276e-08
*RC U1004:B1 6.338e-08
*END

*R_NET XC\[0\]\[3\] 2.226e-02
*DRIVER XC_reg\[0\]\[3\]:Q
*CELL DFFQX1
*C2_R1_C1 1.113e-02 1.133e-05 1.113e-02 
*LOADS
*RC U267:A1N 6.276e-08
*RC U1005:B1 6.338e-08
*END

*R_NET XC\[0\]\[2\] 2.226e-02
*DRIVER XC_reg\[0\]\[2\]:Q
*CELL DFFQX1
*C2_R1_C1 1.113e-02 1.133e-05 1.113e-02 
*LOADS
*RC U500:A1N 6.276e-08
*RC U1006:B1 6.338e-08
*END

*R_NET XC\[0\]\[1\] 2.265e-02
*DRIVER XC_reg\[0\]\[1\]:Q
*CELL DFFQX1
*C2_R1_C1 1.132e-02 1.133e-05 1.132e-02 
*LOADS
*RC U496:A 6.496e-08
*RC U1007:B1 6.338e-08
*END

*R_NET XC\[0\]\[0\] 2.362e-02
*DRIVER XC_reg\[0\]\[0\]:Q
*CELL DFFQX1
*C2_R1_C1 1.181e-02 1.133e-05 1.181e-02 
*LOADS
*RC U176:B 7.014e-08
*RC U1008:B0 6.372e-08
*END

*R_NET XC\[1\]\[11\] 2.226e-02
*DRIVER XC_reg\[1\]\[11\]:Q
*CELL DFFQX1
*C2_R1_C1 1.113e-02 1.133e-05 1.113e-02 
*LOADS
*RC U278:A1N 6.276e-08
*RC U1027:B1 6.338e-08
*END

*R_NET XC\[1\]\[10\] 2.226e-02
*DRIVER XC_reg\[1\]\[10\]:Q
*CELL DFFQX1
*C2_R1_C1 1.113e-02 1.133e-05 1.113e-02 
*LOADS
*RC U323:A1N 6.276e-08
*RC U1028:B1 6.338e-08
*END

*R_NET XC\[1\]\[9\] 2.226e-02
*DRIVER XC_reg\[1\]\[9\]:Q
*CELL DFFQX1
*C2_R1_C1 1.113e-02 1.133e-05 1.113e-02 
*LOADS
*RC U320:A1N 6.276e-08
*RC U1029:B1 6.338e-08
*END

*R_NET XC\[1\]\[8\] 2.226e-02
*DRIVER XC_reg\[1\]\[8\]:Q
*CELL DFFQX1
*C2_R1_C1 1.113e-02 1.133e-05 1.113e-02 
*LOADS
*RC U297:A1N 6.276e-08
*RC U1030:B1 6.338e-08
*END

*R_NET XC\[1\]\[7\] 2.226e-02
*DRIVER XC_reg\[1\]\[7\]:Q
*CELL DFFQX1
*C2_R1_C1 1.113e-02 1.133e-05 1.113e-02 
*LOADS
*RC U295:A1N 6.276e-08
*RC U1031:B1 6.338e-08
*END

*R_NET XC\[1\]\[6\] 2.226e-02
*DRIVER XC_reg\[1\]\[6\]:Q
*CELL DFFQX1
*C2_R1_C1 1.113e-02 1.133e-05 1.113e-02 
*LOADS
*RC U507:A1N 6.276e-08
*RC U1032:B1 6.338e-08
*END

*R_NET XC\[1\]\[5\] 2.226e-02
*DRIVER XC_reg\[1\]\[5\]:Q
*CELL DFFQX1
*C2_R1_C1 1.113e-02 1.133e-05 1.113e-02 
*LOADS
*RC U505:A1N 6.276e-08
*RC U1033:B1 6.338e-08
*END

*R_NET XC\[1\]\[4\] 2.226e-02
*DRIVER XC_reg\[1\]\[4\]:Q
*CELL DFFQX1
*C2_R1_C1 1.113e-02 1.133e-05 1.113e-02 
*LOADS
*RC U516:A1N 6.276e-08
*RC U1034:B1 6.338e-08
*END

*R_NET XC\[1\]\[3\] 2.226e-02
*DRIVER XC_reg\[1\]\[3\]:Q
*CELL DFFQX1
*C2_R1_C1 1.113e-02 1.133e-05 1.113e-02 
*LOADS
*RC U465:A1N 6.276e-08
*RC U1035:B1 6.338e-08
*END

*R_NET XC\[1\]\[2\] 2.307e-02
*DRIVER XC_reg\[1\]\[2\]:Q
*CELL DFFQX1
*C2_R1_C1 1.154e-02 1.133e-05 1.154e-02 
*LOADS
*RC U462:A1 6.737e-08
*RC U1036:B1 6.338e-08
*END

*R_NET XC\[1\]\[1\] 2.265e-02
*DRIVER XC_reg\[1\]\[1\]:Q
*CELL DFFQX1
*C2_R1_C1 1.132e-02 1.133e-05 1.132e-02 
*LOADS
*RC U484:A 6.496e-08
*RC U1037:B1 6.338e-08
*END

*R_NET XC\[1\]\[0\] 2.212e-02
*DRIVER XC_reg\[1\]\[0\]:Q
*CELL DFFQX1
*C2_R1_C1 1.106e-02 1.133e-05 1.106e-02 
*LOADS
*RC U528:A1N 6.199e-08
*RC U1038:B1 6.338e-08
*END

*R_NET XC\[2\]\[11\] 2.240e-02
*DRIVER XC_reg\[2\]\[11\]:Q
*CELL DFFQX1
*C2_R1_C1 1.120e-02 1.133e-05 1.120e-02 
*LOADS
*RC U359:A1 6.356e-08
*RC U1057:B1 6.338e-08
*END

*R_NET XC\[2\]\[10\] 2.240e-02
*DRIVER XC_reg\[2\]\[10\]:Q
*CELL DFFQX1
*C2_R1_C1 1.120e-02 1.133e-05 1.120e-02 
*LOADS
*RC U311:A1 6.356e-08
*RC U1058:B1 6.338e-08
*END

*R_NET XC\[2\]\[9\] 2.240e-02
*DRIVER XC_reg\[2\]\[9\]:Q
*CELL DFFQX1
*C2_R1_C1 1.120e-02 1.133e-05 1.120e-02 
*LOADS
*RC U308:A1 6.356e-08
*RC U1059:B1 6.338e-08
*END

*R_NET XC\[2\]\[8\] 2.240e-02
*DRIVER XC_reg\[2\]\[8\]:Q
*CELL DFFQX1
*C2_R1_C1 1.120e-02 1.133e-05 1.120e-02 
*LOADS
*RC U412:A1 6.356e-08
*RC U1060:B1 6.338e-08
*END

*R_NET XC\[2\]\[7\] 2.240e-02
*DRIVER XC_reg\[2\]\[7\]:Q
*CELL DFFQX1
*C2_R1_C1 1.120e-02 1.133e-05 1.120e-02 
*LOADS
*RC U445:A1 6.356e-08
*RC U1061:B1 6.338e-08
*END

*R_NET XC\[2\]\[6\] 2.240e-02
*DRIVER XC_reg\[2\]\[6\]:Q
*CELL DFFQX1
*C2_R1_C1 1.120e-02 1.133e-05 1.120e-02 
*LOADS
*RC U443:A1 6.356e-08
*RC U1062:B1 6.338e-08
*END

*R_NET XC\[2\]\[5\] 2.240e-02
*DRIVER XC_reg\[2\]\[5\]:Q
*CELL DFFQX1
*C2_R1_C1 1.120e-02 1.133e-05 1.120e-02 
*LOADS
*RC U456:A1 6.356e-08
*RC U1063:B1 6.338e-08
*END

*R_NET XC\[2\]\[4\] 2.240e-02
*DRIVER XC_reg\[2\]\[4\]:Q
*CELL DFFQX1
*C2_R1_C1 1.120e-02 1.133e-05 1.120e-02 
*LOADS
*RC U336:A1 6.356e-08
*RC U1064:B1 6.338e-08
*END

*R_NET XC\[2\]\[3\] 2.240e-02
*DRIVER XC_reg\[2\]\[3\]:Q
*CELL DFFQX1
*C2_R1_C1 1.120e-02 1.133e-05 1.120e-02 
*LOADS
*RC U333:A1 6.356e-08
*RC U1065:B1 6.338e-08
*END

*R_NET XC\[2\]\[2\] 2.240e-02
*DRIVER XC_reg\[2\]\[2\]:Q
*CELL DFFQX1
*C2_R1_C1 1.120e-02 1.133e-05 1.120e-02 
*LOADS
*RC U474:A1 6.356e-08
*RC U1066:B1 6.338e-08
*END

*R_NET XC\[2\]\[1\] 2.240e-02
*DRIVER XC_reg\[2\]\[1\]:Q
*CELL DFFQX1
*C2_R1_C1 1.120e-02 1.133e-05 1.120e-02 
*LOADS
*RC U344:A1 6.356e-08
*RC U1067:B1 6.338e-08
*END

*R_NET XC\[2\]\[0\] 2.212e-02
*DRIVER XC_reg\[2\]\[0\]:Q
*CELL DFFQX1
*C2_R1_C1 1.106e-02 1.133e-05 1.106e-02 
*LOADS
*RC U341:A1N 6.199e-08
*RC U1068:B1 6.338e-08
*END

*R_NET XC\[3\]\[11\] 2.273e-02
*DRIVER XC_reg\[3\]\[11\]:Q
*CELL DFFQX1
*C2_R1_C1 1.136e-02 1.133e-05 1.136e-02 
*LOADS
*RC U260:B 6.541e-08
*RC U1079:B1 6.338e-08
*END

*R_NET XC\[3\]\[10\] 2.273e-02
*DRIVER XC_reg\[3\]\[10\]:Q
*CELL DFFQX1
*C2_R1_C1 1.136e-02 1.133e-05 1.136e-02 
*LOADS
*RC U635:B 6.541e-08
*RC U1080:B1 6.338e-08
*END

*R_NET XC\[3\]\[9\] 2.273e-02
*DRIVER XC_reg\[3\]\[9\]:Q
*CELL DFFQX1
*C2_R1_C1 1.136e-02 1.133e-05 1.136e-02 
*LOADS
*RC U570:B 6.541e-08
*RC U1081:B1 6.338e-08
*END

*R_NET XC\[3\]\[8\] 2.273e-02
*DRIVER XC_reg\[3\]\[8\]:Q
*CELL DFFQX1
*C2_R1_C1 1.136e-02 1.133e-05 1.136e-02 
*LOADS
*RC U568:B 6.541e-08
*RC U1082:B1 6.338e-08
*END

*R_NET XC\[3\]\[7\] 2.273e-02
*DRIVER XC_reg\[3\]\[7\]:Q
*CELL DFFQX1
*C2_R1_C1 1.136e-02 1.133e-05 1.136e-02 
*LOADS
*RC U561:B 6.541e-08
*RC U1083:B1 6.338e-08
*END

*R_NET XC\[3\]\[6\] 2.273e-02
*DRIVER XC_reg\[3\]\[6\]:Q
*CELL DFFQX1
*C2_R1_C1 1.136e-02 1.133e-05 1.136e-02 
*LOADS
*RC U429:B 6.541e-08
*RC U1084:B1 6.338e-08
*END

*R_NET XC\[3\]\[5\] 2.273e-02
*DRIVER XC_reg\[3\]\[5\]:Q
*CELL DFFQX1
*C2_R1_C1 1.136e-02 1.133e-05 1.136e-02 
*LOADS
*RC U427:B 6.541e-08
*RC U1085:B1 6.338e-08
*END

*R_NET XC\[3\]\[4\] 2.273e-02
*DRIVER XC_reg\[3\]\[4\]:Q
*CELL DFFQX1
*C2_R1_C1 1.136e-02 1.133e-05 1.136e-02 
*LOADS
*RC U481:B 6.541e-08
*RC U1086:B1 6.338e-08
*END

*R_NET XC\[3\]\[3\] 2.273e-02
*DRIVER XC_reg\[3\]\[3\]:Q
*CELL DFFQX1
*C2_R1_C1 1.136e-02 1.133e-05 1.136e-02 
*LOADS
*RC U479:B 6.541e-08
*RC U1087:B1 6.338e-08
*END

*R_NET XC\[3\]\[2\] 2.273e-02
*DRIVER XC_reg\[3\]\[2\]:Q
*CELL DFFQX1
*C2_R1_C1 1.136e-02 1.133e-05 1.136e-02 
*LOADS
*RC U243:B 6.541e-08
*RC U1088:B1 6.338e-08
*END

*R_NET XC\[3\]\[1\] 2.240e-02
*DRIVER XC_reg\[3\]\[1\]:Q
*CELL DFFQX1
*C2_R1_C1 1.120e-02 1.133e-05 1.120e-02 
*LOADS
*RC U241:A1 6.356e-08
*RC U1089:B1 6.338e-08
*END

*R_NET XC\[3\]\[0\] 2.352e-02
*DRIVER XC_reg\[3\]\[0\]:Q
*CELL DFFQX1
*C2_R1_C1 1.176e-02 1.133e-05 1.176e-02 
*LOADS
*RC U205:B 6.990e-08
*RC U1090:B1 6.338e-08
*END

*R_NET P\[0\]\[7\] 2.298e-02
*DRIVER P_reg\[0\]\[7\]:Q
*CELL DFFQX1
*C2_R1_C1 1.149e-02 1.133e-05 1.149e-02 
*LOADS
*RC U221:A1 6.480e-08
*RC U981:A0 6.542e-08
*END

*R_NET P\[0\]\[6\] 2.298e-02
*DRIVER P_reg\[0\]\[6\]:Q
*CELL DFFQX1
*C2_R1_C1 1.149e-02 1.133e-05 1.149e-02 
*LOADS
*RC U220:A1 6.480e-08
*RC U983:A0 6.542e-08
*END

*R_NET P\[0\]\[5\] 2.298e-02
*DRIVER P_reg\[0\]\[5\]:Q
*CELL DFFQX1
*C2_R1_C1 1.149e-02 1.133e-05 1.149e-02 
*LOADS
*RC U224:A1 6.480e-08
*RC U986:A0 6.542e-08
*END

*R_NET P\[0\]\[4\] 2.298e-02
*DRIVER P_reg\[0\]\[4\]:Q
*CELL DFFQX1
*C2_R1_C1 1.149e-02 1.133e-05 1.149e-02 
*LOADS
*RC U381:A1 6.480e-08
*RC U988:A0 6.542e-08
*END

*R_NET P\[0\]\[3\] 2.298e-02
*DRIVER P_reg\[0\]\[3\]:Q
*CELL DFFQX1
*C2_R1_C1 1.149e-02 1.133e-05 1.149e-02 
*LOADS
*RC U383:A1 6.480e-08
*RC U990:A0 6.542e-08
*END

*R_NET P\[0\]\[2\] 2.298e-02
*DRIVER P_reg\[0\]\[2\]:Q
*CELL DFFQX1
*C2_R1_C1 1.149e-02 1.133e-05 1.149e-02 
*LOADS
*RC U415:A1 6.480e-08
*RC U992:A0 6.542e-08
*END
