*SPEF "IEEE 1481-1999"
*DESIGN "Bicubic"
*DATE "Sun Aug 24 00:34:28 2025"
*VENDOR "SYNOPSYS INC"
*PROGRAM "Synopsys Design Compiler cmos"
*VERSION "W-2024.09-SP2"
*DESIGN_FLOW "SYNTHESIS"
*DIVIDER /
*DELIMITER :
*BUS_DELIMITER []
*T_UNIT 1.0 NS
*C_UNIT 1.0 PF
*R_UNIT 1.0 KOHM
*L_UNIT 1.0 HENRY

*PORTS

CLK I *L 0.000e+00 *S 0.000e+00 0.000e+00 
RST I *L 0.000e+00 *S 0.000e+00 0.000e+00 
SW\[4\] I *L 0.000e+00 *S 4.279e-03 4.279e-03 
SW\[3\] I *L 0.000e+00 *S 4.279e-03 4.279e-03 
SW\[2\] I *L 0.000e+00 *S 5.052e-03 5.052e-03 
SW\[1\] I *L 0.000e+00 *S 5.421e-03 5.421e-03 
SW\[0\] I *L 0.000e+00 *S 4.051e-03 4.051e-03 
SH\[4\] I *L 0.000e+00 *S 1.018e-02 1.018e-02 
SH\[3\] I *L 0.000e+00 *S 1.060e-02 1.060e-02 
SH\[2\] I *L 0.000e+00 *S 1.087e-02 1.087e-02 
SH\[1\] I *L 0.000e+00 *S 9.333e-03 9.333e-03 
SH\[0\] I *L 0.000e+00 *S 1.173e-02 1.173e-02 
TW\[5\] I *L 0.000e+00 *S 1.668e-02 1.668e-02 
TW\[4\] I *L 0.000e+00 *S 5.878e-03 5.878e-03 
TW\[3\] I *L 0.000e+00 *S 1.077e-02 1.077e-02 
TW\[2\] I *L 0.000e+00 *S 1.021e-02 1.021e-02 
TW\[1\] I *L 0.000e+00 *S 2.719e-02 2.719e-02 
TW\[0\] I *L 0.000e+00 *S 2.264e-02 2.264e-02 
TH\[5\] I *L 0.000e+00 *S 1.402e-02 1.402e-02 
TH\[4\] I *L 0.000e+00 *S 1.517e-02 1.517e-02 
TH\[3\] I *L 0.000e+00 *S 1.628e-02 1.628e-02 
TH\[2\] I *L 0.000e+00 *S 1.072e-02 1.072e-02 
TH\[1\] I *L 0.000e+00 *S 2.849e-02 2.849e-02 
TH\[0\] I *L 0.000e+00 *S 2.137e-02 2.137e-02 
DONE O *L 1.000e+00 *S 5.876e-01 4.054e-01 

*R_NET CLK 1.839e+00
*DRIVER CLK
*CELL NULL
*C2_R1_C1 9.196e-01 8.217e-04 9.196e-01 
*LOADS
*RC P_buf_reg\[0\]\[6\]:CK 7.720e-08
*RC P_buf_reg\[0\]\[5\]:CK 7.720e-08
*RC P_buf_reg\[0\]\[4\]:CK 7.720e-08
*RC P_buf_reg\[0\]\[3\]:CK 7.720e-08
*RC P_buf_reg\[0\]\[2\]:CK 7.720e-08
*RC P_buf_reg\[0\]\[1\]:CK 7.720e-08
*RC prev_coord_h_reg\[2\]:CK 6.681e-08
*RC prev_coord_h_reg\[5\]:CK 6.681e-08
*RC prev_coord_h_reg\[3\]:CK 6.681e-08
*RC prev_coord_h_reg\[1\]:CK 6.681e-08
*RC prev_coord_h_reg\[0\]:CK 6.681e-08
*RC P_buf_reg\[0\]\[0\]:CK 6.681e-08
*RC P_buf_reg\[2\]\[5\]:CK 8.846e-08
*RC P_buf_reg\[3\]\[0\]:CK 6.681e-08
*RC P_buf_reg\[3\]\[2\]:CK 6.681e-08
*RC P_buf_reg\[3\]\[1\]:CK 6.681e-08
*RC P_buf_reg\[3\]\[6\]:CK 6.681e-08
*RC P_buf_reg\[3\]\[3\]:CK 6.681e-08
*RC P_buf_reg\[2\]\[1\]:CK 6.681e-08
*RC P_buf_reg\[2\]\[4\]:CK 6.681e-08
*RC P_buf_reg\[2\]\[2\]:CK 6.681e-08
*RC P_buf_reg\[1\]\[1\]:CK 6.681e-08
*RC sns_divider\/remainder_reg\[1\]:CK 8.846e-08
*RC sns_divider\/remainder_reg\[2\]:CK 8.846e-08
*RC x1_reg\[3\]:CK 8.846e-08
*RC x2_reg\[7\]:CK 7.720e-08
*RC x1_reg\[7\]:CK 7.242e-08
*RC rem_h_reg\[6\]:CK 6.850e-08
*RC coord_h_reg\[6\]:CK 7.242e-08
*RC next_mode_reg:CK 8.846e-08
*RC x1_reg\[0\]:CK 8.846e-08
*RC x1_reg\[1\]:CK 8.846e-08
*RC sns_divider\/remainder_reg\[4\]:CK 8.846e-08
*RC rem_v_reg\[5\]:CK 6.850e-08
*RC prev_rem_v_reg\[2\]:CK 6.681e-08
*RC x2_reg\[6\]:CK 7.242e-08
*RC x2_reg\[1\]:CK 7.242e-08
*RC prev_rem_v_reg\[0\]:CK 6.681e-08
*RC x2_reg\[0\]:CK 7.242e-08
*RC coord_v_reg\[4\]:CK 8.846e-08
*RC next_rem_v_reg\[5\]:CK 8.779e-08
*RC coord_v_reg\[3\]:CK 7.242e-08
*RC next_rem_v_reg\[4\]:CK 7.720e-08
*RC rem_v_reg\[0\]:CK 6.850e-08
*RC rem_v_reg\[2\]:CK 6.681e-08
*RC rem_h_reg\[1\]:CK 7.242e-08
*RC prev_coord_v_reg\[1\]:CK 6.681e-08
*RC prev_coord_v_reg\[0\]:CK 6.681e-08
*RC cycle_cnt_lv2_reg\[2\]:CK 8.779e-08
*RC cycle_cnt_lv2_reg\[3\]:CK 7.242e-08
*RC cycle_cnt_lv2_reg\[0\]:CK 7.242e-08
*RC P_buf_reg\[3\]\[4\]:CK 6.681e-08
*RC prev_coord_h_reg\[4\]:CK 6.681e-08
*RC cycle_cnt_reg\[1\]:CK 6.850e-08
*RC cycle_cnt_lv2_reg\[7\]:CK 6.681e-08
*RC x1_reg\[2\]:CK 7.242e-08
*RC state_reg:CK 6.681e-08
*RC cycle_cnt_lv2_reg\[1\]:CK 8.846e-08
*RC x3_reg\[4\]:CK 6.426e-08
*RC x3_reg\[1\]:CK 6.364e-08
*RC rem_h_reg\[2\]:CK 7.557e-08
*RC rem_h_reg\[0\]:CK 6.868e-08
*RC rem_v_reg\[3\]:CK 6.681e-08
*RC mode_reg:CK 6.850e-08
*RC coord_h_reg\[3\]:CK 6.850e-08
*RC cycle_cnt_lv2_reg\[5\]:CK 7.242e-08
*RC coord_h_reg\[5\]:CK 6.850e-08
*RC cycle_cnt_reg\[0\]:CK 6.850e-08
*RC DONE_reg:CK 6.681e-08
*RC sns_divider\/remainder_reg\[0\]:CK 8.846e-08
*RC sns_divider\/remainder_reg\[3\]:CK 8.779e-08
*RC sns_divider\/remainder_reg\[5\]:CK 8.779e-08
*RC sns_divider\/remainder_reg\[6\]:CK 8.779e-08
*RC cycle_cnt_lv2_reg\[6\]:CK 7.242e-08
*RC next_rem_v_reg\[3\]:CK 8.846e-08
*RC coord_v_reg\[1\]:CK 6.850e-08
*RC cycle_cnt_reg\[2\]:CK 6.850e-08
*RC P_buf_reg\[3\]\[7\]:CK 6.681e-08
*RC prev_rem_v_reg\[1\]:CK 6.681e-08
*RC prev_coord_h_reg\[6\]:CK 6.681e-08
*RC coord_h_reg\[2\]:CK 6.681e-08
*RC sns_divider\/qoutient_reg\[0\]:CK 6.681e-08
*RC coord_v_reg\[6\]:CK 6.681e-08
*RC P_buf_reg\[1\]\[6\]:CK 6.681e-08
*RC P_buf_reg\[1\]\[5\]:CK 6.681e-08
*RC P_buf_reg\[1\]\[4\]:CK 6.681e-08
*RC P_buf_reg\[1\]\[3\]:CK 6.681e-08
*RC P_buf_reg\[1\]\[2\]:CK 6.681e-08
*RC P_buf_reg\[1\]\[0\]:CK 6.681e-08
*RC P_buf_reg\[1\]\[7\]:CK 6.681e-08
*RC rem_h_reg\[3\]:CK 7.242e-08
*RC rem_h_reg\[5\]:CK 6.850e-08
*RC next_rem_v_reg\[2\]:CK 8.846e-08
*RC coord_v_reg\[2\]:CK 6.681e-08
*RC rem_h_reg\[4\]:CK 6.850e-08
*RC next_rem_v_reg\[0\]:CK 6.681e-08
*RC next_rem_v_reg\[1\]:CK 6.850e-08
*RC next_rem_v_reg\[6\]:CK 8.846e-08
*RC P_buf_reg\[0\]\[7\]:CK 6.681e-08
*RC coord_v_reg\[5\]:CK 6.850e-08
*RC P_buf_reg\[2\]\[0\]:CK 6.681e-08
*RC P_buf_reg\[2\]\[3\]:CK 6.681e-08
*RC P_buf_reg\[2\]\[6\]:CK 6.681e-08
*RC coord_h_reg\[1\]:CK 6.681e-08
*RC P_buf_reg\[2\]\[7\]:CK 8.846e-08
*RC P_buf_reg\[3\]\[5\]:CK 6.681e-08
*RC coord_v_reg\[0\]:CK 6.850e-08
*RC coord_h_reg\[4\]:CK 6.850e-08
*RC prev_rem_v_reg\[6\]:CK 6.681e-08
*RC rem_v_reg\[1\]:CK 6.681e-08
*RC rem_v_reg\[6\]:CK 6.681e-08
*RC prev_rem_v_reg\[5\]:CK 6.681e-08
*RC prev_coord_v_reg\[6\]:CK 6.681e-08
*RC prev_coord_v_reg\[4\]:CK 6.681e-08
*RC prev_coord_v_reg\[5\]:CK 6.681e-08
*RC prev_coord_v_reg\[3\]:CK 6.681e-08
*RC x3_reg\[3\]:CK 6.364e-08
*RC x3_reg\[2\]:CK 6.364e-08
*RC x3_reg\[6\]:CK 6.364e-08
*RC x3_reg\[0\]:CK 6.364e-08
*RC x3_reg\[5\]:CK 6.364e-08
*RC sns_divider\/qoutient_reg\[1\]:CK 6.681e-08
*RC cycle_cnt_lv2_reg\[4\]:CK 6.681e-08
*RC sns_divider\/qoutient_reg\[2\]:CK 6.681e-08
*RC sns_divider\/qoutient_reg\[3\]:CK 6.681e-08
*RC sns_divider\/qoutient_reg\[4\]:CK 6.681e-08
*RC sns_divider\/qoutient_reg\[5\]:CK 6.681e-08
*RC sns_divider\/qoutient_reg\[6\]:CK 6.681e-08
*RC sns_divider\/qoutient_reg\[7\]:CK 6.681e-08
*RC x1_reg\[6\]:CK 8.846e-08
*RC x1_reg\[5\]:CK 8.846e-08
*RC x1_reg\[4\]:CK 8.846e-08
*RC x3_reg\[7\]:CK 6.681e-08
*RC x2_reg\[2\]:CK 8.846e-08
*RC x2_reg\[3\]:CK 8.846e-08
*RC x2_reg\[4\]:CK 8.846e-08
*RC x2_reg\[5\]:CK 8.846e-08
*RC prev_rem_v_reg\[4\]:CK 6.681e-08
*RC rem_v_reg\[4\]:CK 6.681e-08
*RC prev_rem_v_reg\[3\]:CK 6.681e-08
*RC coord_h_reg\[0\]:CK 6.850e-08
*RC prev_coord_v_reg\[2\]:CK 6.681e-08
*RC prev_mode_reg:CK 6.681e-08
*RC cubic_engine:clk 5.667e-08
*RC u_ResultSRAM:CLK 5.667e-08
*DRIVER cubic_engine:clk
*CELL Cubic_engine
*C2_R1_C1 9.196e-01 8.217e-04 9.196e-01 
*LOADS
*RC P_buf_reg\[0\]\[6\]:CK 7.720e-08
*RC P_buf_reg\[0\]\[5\]:CK 7.720e-08
*RC P_buf_reg\[0\]\[4\]:CK 7.720e-08
*RC P_buf_reg\[0\]\[3\]:CK 7.720e-08
*RC P_buf_reg\[0\]\[2\]:CK 7.720e-08
*RC P_buf_reg\[0\]\[1\]:CK 7.720e-08
*RC prev_coord_h_reg\[2\]:CK 6.681e-08
*RC prev_coord_h_reg\[5\]:CK 6.681e-08
*RC prev_coord_h_reg\[3\]:CK 6.681e-08
*RC prev_coord_h_reg\[1\]:CK 6.681e-08
*RC prev_coord_h_reg\[0\]:CK 6.681e-08
*RC P_buf_reg\[0\]\[0\]:CK 6.681e-08
*RC P_buf_reg\[2\]\[5\]:CK 8.846e-08
*RC P_buf_reg\[3\]\[0\]:CK 6.681e-08
*RC P_buf_reg\[3\]\[2\]:CK 6.681e-08
*RC P_buf_reg\[3\]\[1\]:CK 6.681e-08
*RC P_buf_reg\[3\]\[6\]:CK 6.681e-08
*RC P_buf_reg\[3\]\[3\]:CK 6.681e-08
*RC P_buf_reg\[2\]\[1\]:CK 6.681e-08
*RC P_buf_reg\[2\]\[4\]:CK 6.681e-08
*RC P_buf_reg\[2\]\[2\]:CK 6.681e-08
*RC P_buf_reg\[1\]\[1\]:CK 6.681e-08
*RC sns_divider\/remainder_reg\[1\]:CK 8.846e-08
*RC sns_divider\/remainder_reg\[2\]:CK 8.846e-08
*RC x1_reg\[3\]:CK 8.846e-08
*RC x2_reg\[7\]:CK 7.720e-08
*RC x1_reg\[7\]:CK 7.242e-08
*RC rem_h_reg\[6\]:CK 6.850e-08
*RC coord_h_reg\[6\]:CK 7.242e-08
*RC next_mode_reg:CK 8.846e-08
*RC x1_reg\[0\]:CK 8.846e-08
*RC x1_reg\[1\]:CK 8.846e-08
*RC sns_divider\/remainder_reg\[4\]:CK 8.846e-08
*RC rem_v_reg\[5\]:CK 6.850e-08
*RC prev_rem_v_reg\[2\]:CK 6.681e-08
*RC x2_reg\[6\]:CK 7.242e-08
*RC x2_reg\[1\]:CK 7.242e-08
*RC prev_rem_v_reg\[0\]:CK 6.681e-08
*RC x2_reg\[0\]:CK 7.242e-08
*RC coord_v_reg\[4\]:CK 8.846e-08
*RC next_rem_v_reg\[5\]:CK 8.779e-08
*RC coord_v_reg\[3\]:CK 7.242e-08
*RC next_rem_v_reg\[4\]:CK 7.720e-08
*RC rem_v_reg\[0\]:CK 6.850e-08
*RC rem_v_reg\[2\]:CK 6.681e-08
*RC rem_h_reg\[1\]:CK 7.242e-08
*RC prev_coord_v_reg\[1\]:CK 6.681e-08
*RC prev_coord_v_reg\[0\]:CK 6.681e-08
*RC cycle_cnt_lv2_reg\[2\]:CK 8.779e-08
*RC cycle_cnt_lv2_reg\[3\]:CK 7.242e-08
*RC cycle_cnt_lv2_reg\[0\]:CK 7.242e-08
*RC P_buf_reg\[3\]\[4\]:CK 6.681e-08
*RC prev_coord_h_reg\[4\]:CK 6.681e-08
*RC cycle_cnt_reg\[1\]:CK 6.850e-08
*RC cycle_cnt_lv2_reg\[7\]:CK 6.681e-08
*RC x1_reg\[2\]:CK 7.242e-08
*RC state_reg:CK 6.681e-08
*RC cycle_cnt_lv2_reg\[1\]:CK 8.846e-08
*RC x3_reg\[4\]:CK 6.426e-08
*RC x3_reg\[1\]:CK 6.364e-08
*RC rem_h_reg\[2\]:CK 7.557e-08
*RC rem_h_reg\[0\]:CK 6.868e-08
*RC rem_v_reg\[3\]:CK 6.681e-08
*RC mode_reg:CK 6.850e-08
*RC coord_h_reg\[3\]:CK 6.850e-08
*RC cycle_cnt_lv2_reg\[5\]:CK 7.242e-08
*RC coord_h_reg\[5\]:CK 6.850e-08
*RC cycle_cnt_reg\[0\]:CK 6.850e-08
*RC DONE_reg:CK 6.681e-08
*RC sns_divider\/remainder_reg\[0\]:CK 8.846e-08
*RC sns_divider\/remainder_reg\[3\]:CK 8.779e-08
*RC sns_divider\/remainder_reg\[5\]:CK 8.779e-08
*RC sns_divider\/remainder_reg\[6\]:CK 8.779e-08
*RC cycle_cnt_lv2_reg\[6\]:CK 7.242e-08
*RC next_rem_v_reg\[3\]:CK 8.846e-08
*RC coord_v_reg\[1\]:CK 6.850e-08
*RC cycle_cnt_reg\[2\]:CK 6.850e-08
*RC P_buf_reg\[3\]\[7\]:CK 6.681e-08
*RC prev_rem_v_reg\[1\]:CK 6.681e-08
*RC prev_coord_h_reg\[6\]:CK 6.681e-08
*RC coord_h_reg\[2\]:CK 6.681e-08
*RC sns_divider\/qoutient_reg\[0\]:CK 6.681e-08
*RC coord_v_reg\[6\]:CK 6.681e-08
*RC P_buf_reg\[1\]\[6\]:CK 6.681e-08
*RC P_buf_reg\[1\]\[5\]:CK 6.681e-08
*RC P_buf_reg\[1\]\[4\]:CK 6.681e-08
*RC P_buf_reg\[1\]\[3\]:CK 6.681e-08
*RC P_buf_reg\[1\]\[2\]:CK 6.681e-08
*RC P_buf_reg\[1\]\[0\]:CK 6.681e-08
*RC P_buf_reg\[1\]\[7\]:CK 6.681e-08
*RC rem_h_reg\[3\]:CK 7.242e-08
*RC rem_h_reg\[5\]:CK 6.850e-08
*RC next_rem_v_reg\[2\]:CK 8.846e-08
*RC coord_v_reg\[2\]:CK 6.681e-08
*RC rem_h_reg\[4\]:CK 6.850e-08
*RC next_rem_v_reg\[0\]:CK 6.681e-08
*RC next_rem_v_reg\[1\]:CK 6.850e-08
*RC next_rem_v_reg\[6\]:CK 8.846e-08
*RC P_buf_reg\[0\]\[7\]:CK 6.681e-08
*RC coord_v_reg\[5\]:CK 6.850e-08
*RC P_buf_reg\[2\]\[0\]:CK 6.681e-08
*RC P_buf_reg\[2\]\[3\]:CK 6.681e-08
*RC P_buf_reg\[2\]\[6\]:CK 6.681e-08
*RC coord_h_reg\[1\]:CK 6.681e-08
*RC P_buf_reg\[2\]\[7\]:CK 8.846e-08
*RC P_buf_reg\[3\]\[5\]:CK 6.681e-08
*RC coord_v_reg\[0\]:CK 6.850e-08
*RC coord_h_reg\[4\]:CK 6.850e-08
*RC prev_rem_v_reg\[6\]:CK 6.681e-08
*RC rem_v_reg\[1\]:CK 6.681e-08
*RC rem_v_reg\[6\]:CK 6.681e-08
*RC prev_rem_v_reg\[5\]:CK 6.681e-08
*RC prev_coord_v_reg\[6\]:CK 6.681e-08
*RC prev_coord_v_reg\[4\]:CK 6.681e-08
*RC prev_coord_v_reg\[5\]:CK 6.681e-08
*RC prev_coord_v_reg\[3\]:CK 6.681e-08
*RC x3_reg\[3\]:CK 6.364e-08
*RC x3_reg\[2\]:CK 6.364e-08
*RC x3_reg\[6\]:CK 6.364e-08
*RC x3_reg\[0\]:CK 6.364e-08
*RC x3_reg\[5\]:CK 6.364e-08
*RC sns_divider\/qoutient_reg\[1\]:CK 6.681e-08
*RC cycle_cnt_lv2_reg\[4\]:CK 6.681e-08
*RC sns_divider\/qoutient_reg\[2\]:CK 6.681e-08
*RC sns_divider\/qoutient_reg\[3\]:CK 6.681e-08
*RC sns_divider\/qoutient_reg\[4\]:CK 6.681e-08
*RC sns_divider\/qoutient_reg\[5\]:CK 6.681e-08
*RC sns_divider\/qoutient_reg\[6\]:CK 6.681e-08
*RC sns_divider\/qoutient_reg\[7\]:CK 6.681e-08
*RC x1_reg\[6\]:CK 8.846e-08
*RC x1_reg\[5\]:CK 8.846e-08
*RC x1_reg\[4\]:CK 8.846e-08
*RC x3_reg\[7\]:CK 6.681e-08
*RC x2_reg\[2\]:CK 8.846e-08
*RC x2_reg\[3\]:CK 8.846e-08
*RC x2_reg\[4\]:CK 8.846e-08
*RC x2_reg\[5\]:CK 8.846e-08
*RC prev_rem_v_reg\[4\]:CK 6.681e-08
*RC rem_v_reg\[4\]:CK 6.681e-08
*RC prev_rem_v_reg\[3\]:CK 6.681e-08
*RC coord_h_reg\[0\]:CK 6.850e-08
*RC prev_coord_v_reg\[2\]:CK 6.681e-08
*RC prev_mode_reg:CK 6.681e-08
*RC u_ResultSRAM:CLK 5.667e-08
*DRIVER u_ResultSRAM:CLK
*CELL ResultSRAM
*C2_R1_C1 9.196e-01 8.217e-04 9.196e-01 
*LOADS
*RC P_buf_reg\[0\]\[6\]:CK 7.720e-08
*RC P_buf_reg\[0\]\[5\]:CK 7.720e-08
*RC P_buf_reg\[0\]\[4\]:CK 7.720e-08
*RC P_buf_reg\[0\]\[3\]:CK 7.720e-08
*RC P_buf_reg\[0\]\[2\]:CK 7.720e-08
*RC P_buf_reg\[0\]\[1\]:CK 7.720e-08
*RC prev_coord_h_reg\[2\]:CK 6.681e-08
*RC prev_coord_h_reg\[5\]:CK 6.681e-08
*RC prev_coord_h_reg\[3\]:CK 6.681e-08
*RC prev_coord_h_reg\[1\]:CK 6.681e-08
*RC prev_coord_h_reg\[0\]:CK 6.681e-08
*RC P_buf_reg\[0\]\[0\]:CK 6.681e-08
*RC P_buf_reg\[2\]\[5\]:CK 8.846e-08
*RC P_buf_reg\[3\]\[0\]:CK 6.681e-08
*RC P_buf_reg\[3\]\[2\]:CK 6.681e-08
*RC P_buf_reg\[3\]\[1\]:CK 6.681e-08
*RC P_buf_reg\[3\]\[6\]:CK 6.681e-08
*RC P_buf_reg\[3\]\[3\]:CK 6.681e-08
*RC P_buf_reg\[2\]\[1\]:CK 6.681e-08
*RC P_buf_reg\[2\]\[4\]:CK 6.681e-08
*RC P_buf_reg\[2\]\[2\]:CK 6.681e-08
*RC P_buf_reg\[1\]\[1\]:CK 6.681e-08
*RC sns_divider\/remainder_reg\[1\]:CK 8.846e-08
*RC sns_divider\/remainder_reg\[2\]:CK 8.846e-08
*RC x1_reg\[3\]:CK 8.846e-08
*RC x2_reg\[7\]:CK 7.720e-08
*RC x1_reg\[7\]:CK 7.242e-08
*RC rem_h_reg\[6\]:CK 6.850e-08
*RC coord_h_reg\[6\]:CK 7.242e-08
*RC next_mode_reg:CK 8.846e-08
*RC x1_reg\[0\]:CK 8.846e-08
*RC x1_reg\[1\]:CK 8.846e-08
*RC sns_divider\/remainder_reg\[4\]:CK 8.846e-08
*RC rem_v_reg\[5\]:CK 6.850e-08
*RC prev_rem_v_reg\[2\]:CK 6.681e-08
*RC x2_reg\[6\]:CK 7.242e-08
*RC x2_reg\[1\]:CK 7.242e-08
*RC prev_rem_v_reg\[0\]:CK 6.681e-08
*RC x2_reg\[0\]:CK 7.242e-08
*RC coord_v_reg\[4\]:CK 8.846e-08
*RC next_rem_v_reg\[5\]:CK 8.779e-08
*RC coord_v_reg\[3\]:CK 7.242e-08
*RC next_rem_v_reg\[4\]:CK 7.720e-08
*RC rem_v_reg\[0\]:CK 6.850e-08
*RC rem_v_reg\[2\]:CK 6.681e-08
*RC rem_h_reg\[1\]:CK 7.242e-08
*RC prev_coord_v_reg\[1\]:CK 6.681e-08
*RC prev_coord_v_reg\[0\]:CK 6.681e-08
*RC cycle_cnt_lv2_reg\[2\]:CK 8.779e-08
*RC cycle_cnt_lv2_reg\[3\]:CK 7.242e-08
*RC cycle_cnt_lv2_reg\[0\]:CK 7.242e-08
*RC P_buf_reg\[3\]\[4\]:CK 6.681e-08
*RC prev_coord_h_reg\[4\]:CK 6.681e-08
*RC cycle_cnt_reg\[1\]:CK 6.850e-08
*RC cycle_cnt_lv2_reg\[7\]:CK 6.681e-08
*RC x1_reg\[2\]:CK 7.242e-08
*RC state_reg:CK 6.681e-08
*RC cycle_cnt_lv2_reg\[1\]:CK 8.846e-08
*RC x3_reg\[4\]:CK 6.426e-08
*RC x3_reg\[1\]:CK 6.364e-08
*RC rem_h_reg\[2\]:CK 7.557e-08
*RC rem_h_reg\[0\]:CK 6.868e-08
*RC rem_v_reg\[3\]:CK 6.681e-08
*RC mode_reg:CK 6.850e-08
*RC coord_h_reg\[3\]:CK 6.850e-08
*RC cycle_cnt_lv2_reg\[5\]:CK 7.242e-08
*RC coord_h_reg\[5\]:CK 6.850e-08
*RC cycle_cnt_reg\[0\]:CK 6.850e-08
*RC DONE_reg:CK 6.681e-08
*RC sns_divider\/remainder_reg\[0\]:CK 8.846e-08
*RC sns_divider\/remainder_reg\[3\]:CK 8.779e-08
*RC sns_divider\/remainder_reg\[5\]:CK 8.779e-08
*RC sns_divider\/remainder_reg\[6\]:CK 8.779e-08
*RC cycle_cnt_lv2_reg\[6\]:CK 7.242e-08
*RC next_rem_v_reg\[3\]:CK 8.846e-08
*RC coord_v_reg\[1\]:CK 6.850e-08
*RC cycle_cnt_reg\[2\]:CK 6.850e-08
*RC P_buf_reg\[3\]\[7\]:CK 6.681e-08
*RC prev_rem_v_reg\[1\]:CK 6.681e-08
*RC prev_coord_h_reg\[6\]:CK 6.681e-08
*RC coord_h_reg\[2\]:CK 6.681e-08
*RC sns_divider\/qoutient_reg\[0\]:CK 6.681e-08
*RC coord_v_reg\[6\]:CK 6.681e-08
*RC P_buf_reg\[1\]\[6\]:CK 6.681e-08
*RC P_buf_reg\[1\]\[5\]:CK 6.681e-08
*RC P_buf_reg\[1\]\[4\]:CK 6.681e-08
*RC P_buf_reg\[1\]\[3\]:CK 6.681e-08
*RC P_buf_reg\[1\]\[2\]:CK 6.681e-08
*RC P_buf_reg\[1\]\[0\]:CK 6.681e-08
*RC P_buf_reg\[1\]\[7\]:CK 6.681e-08
*RC rem_h_reg\[3\]:CK 7.242e-08
*RC rem_h_reg\[5\]:CK 6.850e-08
*RC next_rem_v_reg\[2\]:CK 8.846e-08
*RC coord_v_reg\[2\]:CK 6.681e-08
*RC rem_h_reg\[4\]:CK 6.850e-08
*RC next_rem_v_reg\[0\]:CK 6.681e-08
*RC next_rem_v_reg\[1\]:CK 6.850e-08
*RC next_rem_v_reg\[6\]:CK 8.846e-08
*RC P_buf_reg\[0\]\[7\]:CK 6.681e-08
*RC coord_v_reg\[5\]:CK 6.850e-08
*RC P_buf_reg\[2\]\[0\]:CK 6.681e-08
*RC P_buf_reg\[2\]\[3\]:CK 6.681e-08
*RC P_buf_reg\[2\]\[6\]:CK 6.681e-08
*RC coord_h_reg\[1\]:CK 6.681e-08
*RC P_buf_reg\[2\]\[7\]:CK 8.846e-08
*RC P_buf_reg\[3\]\[5\]:CK 6.681e-08
*RC coord_v_reg\[0\]:CK 6.850e-08
*RC coord_h_reg\[4\]:CK 6.850e-08
*RC prev_rem_v_reg\[6\]:CK 6.681e-08
*RC rem_v_reg\[1\]:CK 6.681e-08
*RC rem_v_reg\[6\]:CK 6.681e-08
*RC prev_rem_v_reg\[5\]:CK 6.681e-08
*RC prev_coord_v_reg\[6\]:CK 6.681e-08
*RC prev_coord_v_reg\[4\]:CK 6.681e-08
*RC prev_coord_v_reg\[5\]:CK 6.681e-08
*RC prev_coord_v_reg\[3\]:CK 6.681e-08
*RC x3_reg\[3\]:CK 6.364e-08
*RC x3_reg\[2\]:CK 6.364e-08
*RC x3_reg\[6\]:CK 6.364e-08
*RC x3_reg\[0\]:CK 6.364e-08
*RC x3_reg\[5\]:CK 6.364e-08
*RC sns_divider\/qoutient_reg\[1\]:CK 6.681e-08
*RC cycle_cnt_lv2_reg\[4\]:CK 6.681e-08
*RC sns_divider\/qoutient_reg\[2\]:CK 6.681e-08
*RC sns_divider\/qoutient_reg\[3\]:CK 6.681e-08
*RC sns_divider\/qoutient_reg\[4\]:CK 6.681e-08
*RC sns_divider\/qoutient_reg\[5\]:CK 6.681e-08
*RC sns_divider\/qoutient_reg\[6\]:CK 6.681e-08
*RC sns_divider\/qoutient_reg\[7\]:CK 6.681e-08
*RC x1_reg\[6\]:CK 8.846e-08
*RC x1_reg\[5\]:CK 8.846e-08
*RC x1_reg\[4\]:CK 8.846e-08
*RC x3_reg\[7\]:CK 6.681e-08
*RC x2_reg\[2\]:CK 8.846e-08
*RC x2_reg\[3\]:CK 8.846e-08
*RC x2_reg\[4\]:CK 8.846e-08
*RC x2_reg\[5\]:CK 8.846e-08
*RC prev_rem_v_reg\[4\]:CK 6.681e-08
*RC rem_v_reg\[4\]:CK 6.681e-08
*RC prev_rem_v_reg\[3\]:CK 6.681e-08
*RC coord_h_reg\[0\]:CK 6.850e-08
*RC prev_coord_v_reg\[2\]:CK 6.681e-08
*RC prev_mode_reg:CK 6.681e-08
*RC cubic_engine:clk 5.667e-08
*END

*R_NET RST 3.493e-01
*DRIVER RST
*CELL NULL
*C2_R1_C1 1.746e-01 1.360e-04 1.746e-01 
*LOADS
*RC U1623:A 1.174e-07
*RC U883:A 8.658e-08
*RC U1716:A 7.867e-08
*RC U1196:A 6.913e-08
*RC U909:B 1.148e-07
*RC U1189:A 6.913e-08
*RC U914:A 7.299e-08
*RC U961:A 9.092e-08
*RC U1191:A 6.913e-08
*RC U1387:A 1.174e-07
*RC U3157:B 7.093e-08
*RC U3158:A 7.299e-08
*RC U3159:B0 7.210e-08
*RC U3160:A 7.425e-08
*RC U3161:A 7.299e-08
*RC U3162:A0 1.243e-07
*RC U3163:B 1.148e-07
*RC U3164:B 7.235e-08
*RC U3165:B 7.235e-08
*RC U3166:B 7.235e-08
*RC U3167:B 7.235e-08
*RC U3168:B 7.235e-08
*RC U3169:B 7.235e-08
*RC cubic_engine:rst 5.667e-08
*DRIVER cubic_engine:rst
*CELL Cubic_engine
*C2_R1_C1 1.746e-01 1.360e-04 1.746e-01 
*LOADS
*RC U1623:A 1.174e-07
*RC U883:A 8.658e-08
*RC U1716:A 7.867e-08
*RC U1196:A 6.913e-08
*RC U909:B 1.148e-07
*RC U1189:A 6.913e-08
*RC U914:A 7.299e-08
*RC U961:A 9.092e-08
*RC U1191:A 6.913e-08
*RC U1387:A 1.174e-07
*RC U3157:B 7.093e-08
*RC U3158:A 7.299e-08
*RC U3159:B0 7.210e-08
*RC U3160:A 7.425e-08
*RC U3161:A 7.299e-08
*RC U3162:A0 1.243e-07
*RC U3163:B 1.148e-07
*RC U3164:B 7.235e-08
*RC U3165:B 7.235e-08
*RC U3166:B 7.235e-08
*RC U3167:B 7.235e-08
*RC U3168:B 7.235e-08
*RC U3169:B 7.235e-08
*END

*R_NET SW\[4\] 4.279e-02
*DRIVER SW\[4\]
*CELL NULL
*C2_R1_C1 2.140e-02 1.700e-05 2.140e-02 
*LOADS
*RC U986:A 7.278e-08
*RC U993:A 8.658e-08
*RC U1744:B 8.314e-08
*END

*R_NET SW\[3\] 4.279e-02
*DRIVER SW\[3\]
*CELL NULL
*C2_R1_C1 2.140e-02 1.700e-05 2.140e-02 
*LOADS
*RC U2225:A 8.658e-08
*RC U2230:A 7.278e-08
*RC U2282:B 8.314e-08
*END

*R_NET SW\[2\] 5.052e-02
*DRIVER SW\[2\]
*CELL NULL
*C2_R1_C1 2.526e-02 1.700e-05 2.526e-02 
*LOADS
*RC U2222:A 1.174e-07
*RC U2229:A 8.575e-08
*RC U2275:B 8.314e-08
*END

*R_NET SW\[1\] 5.421e-02
*DRIVER SW\[1\]
*CELL NULL
*C2_R1_C1 2.710e-02 1.700e-05 2.710e-02 
*LOADS
*RC U1760:A 1.383e-07
*RC U2227:A 8.575e-08
*RC U2272:B 8.314e-08
*END

*R_NET SW\[0\] 4.051e-02
*DRIVER SW\[0\]
*CELL NULL
*C2_R1_C1 2.025e-02 1.700e-05 2.025e-02 
*LOADS
*RC U1024:A 7.523e-08
*RC U1042:A 8.658e-08
*RC U2268:A 6.772e-08
*END

*R_NET SH\[4\] 1.018e-01
*DRIVER SH\[4\]
*CELL NULL
*C2_R1_C1 5.090e-02 3.967e-05 5.090e-02 
*LOADS
*RC U1014:B 6.524e-08
*RC U1028:B 7.014e-08
*RC U1044:B 8.762e-08
*RC U1135:B 8.797e-08
*RC U1301:A 6.945e-08
*RC U2154:B 1.133e-07
*RC U2199:B 8.314e-08
*END

*R_NET SH\[3\] 1.060e-01
*DRIVER SH\[3\]
*CELL NULL
*C2_R1_C1 5.300e-02 3.967e-05 5.300e-02 
*LOADS
*RC U929:B 1.387e-07
*RC U1065:A 8.432e-08
*RC U1234:A 6.945e-08
*RC U2155:B 7.890e-08
*RC U2196:B 8.314e-08
*RC U2299:A 7.299e-08
*RC U2303:B 7.319e-08
*END

*R_NET SH\[2\] 1.087e-01
*DRIVER SH\[2\]
*CELL NULL
*C2_R1_C1 5.433e-02 3.967e-05 5.433e-02 
*LOADS
*RC U930:B 1.387e-07
*RC U1066:B 8.762e-08
*RC U1068:B 7.357e-08
*RC U1881:A 9.092e-08
*RC U2190:B 8.314e-08
*RC U2299:B 7.093e-08
*RC U2302:B 7.093e-08
*END

*R_NET SH\[1\] 9.333e-02
*DRIVER SH\[1\]
*CELL NULL
*C2_R1_C1 4.666e-02 3.400e-05 4.666e-02 
*LOADS
*RC U2094:A 7.762e-08
*RC U1888:A 6.945e-08
*RC U1233:A 6.945e-08
*RC U2146:A 9.092e-08
*RC U2189:B 8.314e-08
*RC U2300:A 1.383e-07
*END

*R_NET SH\[0\] 1.173e-01
*DRIVER SH\[0\]
*CELL NULL
*C2_R1_C1 5.865e-02 3.967e-05 5.865e-02 
*LOADS
*RC U950:A 1.383e-07
*RC U1057:A 8.658e-08
*RC U1062:A 7.082e-08
*RC U1887:B 8.744e-08
*RC U2167:A 7.523e-08
*RC U2185:A 6.772e-08
*RC U2300:B 1.387e-07
*END

*R_NET TW\[5\] 1.668e-01
*DRIVER TW\[5\]
*CELL NULL
*C2_R1_C1 8.339e-02 4.533e-05 8.339e-02 
*LOADS
*RC U1060:B 8.797e-08
*RC U1088:B 7.890e-08
*RC U1106:B 8.744e-08
*RC U1109:A 1.980e-07
*RC U1857:A 1.980e-07
*RC U1858:B 1.041e-07
*RC U1916:B 1.168e-07
*RC U2917:A 7.401e-08
*END

*R_NET TW\[4\] 5.878e-02
*DRIVER TW\[4\]
*CELL NULL
*C2_R1_C1 2.939e-02 1.700e-05 2.939e-02 
*LOADS
*RC U1100:A 8.701e-08
*RC U1107:A 1.293e-07
*RC U1845:B 1.168e-07
*END

*R_NET TW\[3\] 1.077e-01
*DRIVER TW\[3\]
*CELL NULL
*C2_R1_C1 5.385e-02 2.833e-05 5.385e-02 
*LOADS
*RC U1111:A 9.527e-08
*RC U1545:B 1.168e-07
*RC U1555:B 1.168e-07
*RC U1568:A 1.980e-07
*RC U1776:A 8.346e-08
*END

*R_NET TW\[2\] 1.021e-01
*DRIVER TW\[2\]
*CELL NULL
*C2_R1_C1 5.107e-02 2.833e-05 5.107e-02 
*LOADS
*RC U1546:B 9.338e-08
*RC U1551:B 1.133e-07
*RC U1552:B 1.133e-07
*RC U1582:A 1.074e-07
*RC U1667:A 1.514e-07
*END

*R_NET TW\[1\] 2.719e-01
*DRIVER TW\[1\]
*CELL NULL
*C2_R1_C1 1.359e-01 8.500e-05 1.359e-01 
*LOADS
*RC U931:A 6.945e-08
*RC U1080:A 7.082e-08
*RC U1085:A 7.523e-08
*RC U1104:B 1.430e-07
*RC U1113:A 1.293e-07
*RC U2052:A 7.082e-08
*RC U1504:A 1.293e-07
*RC U1541:B 1.133e-07
*RC U2008:B 1.683e-07
*RC U1681:A 1.524e-07
*RC U1917:B 8.744e-08
*RC U1991:B 1.103e-07
*RC U2029:A 7.299e-08
*RC U2030:A 7.278e-08
*RC U2105:A 7.523e-08
*END

*R_NET TW\[0\] 2.264e-01
*DRIVER TW\[0\]
*CELL NULL
*C2_R1_C1 1.132e-01 6.233e-05 1.132e-01 
*LOADS
*RC U1945:A 1.019e-07
*RC U1453:A 1.293e-07
*RC U1454:A 2.475e-07
*RC U1989:B 9.338e-08
*RC U1685:A 1.742e-07
*RC U1914:A 1.024e-07
*RC U1990:B 1.430e-07
*RC U2254:B 7.093e-08
*RC U2269:A1 7.323e-08
*RC U2446:B 7.357e-08
*RC U3081:B 7.357e-08
*END

*R_NET TH\[5\] 1.402e-01
*DRIVER TH\[5\]
*CELL NULL
*C2_R1_C1 7.009e-02 4.533e-05 7.009e-02 
*LOADS
*RC U1041:B 8.797e-08
*RC U1046:B 7.014e-08
*RC U1105:A 9.092e-08
*RC U1934:B 1.168e-07
*RC U2115:B 1.133e-07
*RC U1720:A 8.163e-08
*RC U1565:B 1.168e-07
*RC U1850:B 1.168e-07
*END

*R_NET TH\[4\] 1.517e-01
*DRIVER TH\[4\]
*CELL NULL
*C2_R1_C1 7.587e-02 4.533e-05 7.587e-02 
*LOADS
*RC U1025:B 8.762e-08
*RC U1046:A 6.913e-08
*RC U1801:B 1.683e-07
*RC U1090:A 7.299e-08
*RC U1302:A 1.293e-07
*RC U1845:A 1.024e-07
*RC U1903:B 1.133e-07
*RC U2114:B 1.168e-07
*END

*R_NET TH\[3\] 1.628e-01
*DRIVER TH\[3\]
*CELL NULL
*C2_R1_C1 8.142e-02 3.967e-05 8.142e-02 
*LOADS
*RC U1089:A 1.174e-07
*RC U1090:B 7.093e-08
*RC U1112:A 1.524e-07
*RC U1459:B 8.744e-08
*RC U1197:A 2.922e-07
*RC U1460:B 8.762e-08
*RC U2113:B 1.148e-07
*END

*R_NET TH\[2\] 1.072e-01
*DRIVER TH\[2\]
*CELL NULL
*C2_R1_C1 5.359e-02 2.833e-05 5.359e-02 
*LOADS
*RC U1089:B 1.148e-07
*RC U1756:A 1.980e-07
*RC U1546:A 9.076e-08
*RC U1551:A 1.019e-07
*RC U1552:A 1.019e-07
*END

*R_NET TH\[1\] 2.849e-01
*DRIVER TH\[1\]
*CELL NULL
*C2_R1_C1 1.424e-01 6.800e-05 1.424e-01 
*LOADS
*RC U1052:A 6.871e-08
*RC U1073:A 1.980e-07
*RC U1096:A 8.432e-08
*RC U1099:A 1.174e-07
*RC U1104:A 1.418e-07
*RC U1110:B 1.387e-07
*RC U1300:B 1.430e-07
*RC U1503:B 1.103e-07
*RC U1661:B 1.683e-07
*RC U1680:A 1.980e-07
*RC U2118:B 1.133e-07
*RC U2411:A 1.326e-07
*END

*R_NET TH\[0\] 2.137e-01
*DRIVER TH\[0\]
*CELL NULL
*C2_R1_C1 1.068e-01 6.800e-05 1.068e-01 
*LOADS
*RC U1067:A 7.523e-08
*RC U1096:B 8.762e-08
*RC U1099:B 1.148e-07
*RC U1182:A 1.055e-07
*RC U1685:B 1.683e-07
*RC U1914:B 1.168e-07
*RC U2186:A1 7.323e-08
*RC U2649:A 7.523e-08
*RC U2993:B 7.357e-08
*RC U1990:A 1.418e-07
*RC U2411:B 1.034e-07
*RC U2446:A 7.523e-08
*END

*R_NET n2837 1.250e-02
*DRIVER DONE_reg:Q
*CELL DFFQX1
*C2_R1_C1 6.249e-03 5.667e-06 6.249e-03 
*LOADS
*RC U1173:A 7.082e-08
*END

*R_NET frac_8_val\[7\] 1.144e-02
*DRIVER sns_divider\/qoutient_reg\[7\]:Q
*CELL DFFQX1
*C2_R1_C1 5.718e-03 5.667e-06 5.718e-03 
*LOADS
*RC U770:A1 6.480e-08
*END

*R_NET frac_8_val\[6\] 2.255e-02
*DRIVER sns_divider\/qoutient_reg\[6\]:Q
*CELL DFFQX1
*C2_R1_C1 1.127e-02 1.133e-05 1.127e-02 
*LOADS
*RC U3164:AN 6.297e-08
*RC U771:A1 6.480e-08
*END

*R_NET frac_8_val\[5\] 2.255e-02
*DRIVER sns_divider\/qoutient_reg\[5\]:Q
*CELL DFFQX1
*C2_R1_C1 1.127e-02 1.133e-05 1.127e-02 
*LOADS
*RC U3165:AN 6.297e-08
*RC U772:A1 6.480e-08
*END

*R_NET frac_8_val\[4\] 2.255e-02
*DRIVER sns_divider\/qoutient_reg\[4\]:Q
*CELL DFFQX1
*C2_R1_C1 1.127e-02 1.133e-05 1.127e-02 
*LOADS
*RC U3166:AN 6.297e-08
*RC U773:A1 6.480e-08
*END

*R_NET frac_8_val\[3\] 2.255e-02
*DRIVER sns_divider\/qoutient_reg\[3\]:Q
*CELL DFFQX1
*C2_R1_C1 1.127e-02 1.133e-05 1.127e-02 
*LOADS
*RC U3167:AN 6.297e-08
*RC U774:A1 6.480e-08
*END

*R_NET frac_8_val\[2\] 2.255e-02
*DRIVER sns_divider\/qoutient_reg\[2\]:Q
*CELL DFFQX1
*C2_R1_C1 1.127e-02 1.133e-05 1.127e-02 
*LOADS
*RC U3168:AN 6.297e-08
*RC U775:A1 6.480e-08
*END

*R_NET frac_8_val\[1\] 2.255e-02
*DRIVER sns_divider\/qoutient_reg\[1\]:Q
*CELL DFFQX1
*C2_R1_C1 1.127e-02 1.133e-05 1.127e-02 
*LOADS
*RC U3169:AN 6.297e-08
*RC U776:A1 6.480e-08
*END

*R_NET frac_8_val\[0\] 2.369e-02
*DRIVER sns_divider\/qoutient_reg\[0\]:Q
*CELL DFFQX1
*C2_R1_C1 1.185e-02 1.133e-05 1.185e-02 
*LOADS
*RC U1437:A 6.945e-08
*RC U777:A1 6.480e-08
*END

*R_NET x1\[7\] 6.249e-02
*DRIVER x1_reg\[7\]:Q
*CELL DFFQX4
*C2_R1_C1 3.125e-02 2.267e-05 3.125e-02 
*LOADS
*RC U992:A 1.524e-07
*RC U2521:A1 6.356e-08
*RC U2892:A 7.278e-08
*RC U753:B 6.541e-08
*END

*R_NET x1\[6\] 7.243e-02
*DRIVER x1_reg\[6\]:Q
*CELL DFFHQX4
*C2_R1_C1 3.621e-02 2.267e-05 3.621e-02 
*LOADS
*RC U752:B 6.990e-08
*RC U2464:A 1.293e-07
*RC U2504:A 8.196e-08
*RC U2561:A 1.293e-07
*END

*R_NET x1\[5\] 5.108e-02
*DRIVER x1_reg\[5\]:Q
*CELL DFFHQX4
*C2_R1_C1 2.554e-02 1.700e-05 2.554e-02 
*LOADS
*RC U751:B 6.541e-08
*RC U1926:A 1.293e-07
*RC DP_OP_645J1_127_5343\/U118:A 9.475e-08
*END

*R_NET x1\[4\] 6.097e-02
*DRIVER x1_reg\[4\]:Q
*CELL DFFHQX4
*C2_R1_C1 3.048e-02 2.267e-05 3.048e-02 
*LOADS
*RC U994:A 1.055e-07
*RC U750:B 6.541e-08
*RC U1230:A 1.055e-07
*RC U2544:A 6.913e-08
*END

*R_NET x1\[3\] 5.513e-02
*DRIVER x1_reg\[3\]:Q
*CELL DFFHQX4
*C2_R1_C1 2.757e-02 1.700e-05 2.757e-02 
*LOADS
*RC U2466:A 1.524e-07
*RC U2475:A 9.465e-08
*RC U749:B 6.541e-08
*END

*R_NET x1\[2\] 5.461e-02
*DRIVER x1_reg\[2\]:Q
*CELL DFFQX4
*C2_R1_C1 2.731e-02 2.267e-05 2.731e-02 
*LOADS
*RC U1188:A 1.055e-07
*RC U2482:A 6.913e-08
*RC U2538:A 6.945e-08
*RC U748:B 6.541e-08
*END

*R_NET x1\[1\] 4.648e-02
*DRIVER x1_reg\[1\]:Q
*CELL DFFHQX4
*C2_R1_C1 2.324e-02 1.133e-05 2.324e-02 
*LOADS
*RC U2468:A 1.980e-07
*RC U747:B 6.541e-08
*END

*R_NET x1\[0\] 3.436e-02
*DRIVER x1_reg\[0\]:Q
*CELL DFFHQX4
*C2_R1_C1 1.718e-02 1.133e-05 1.718e-02 
*LOADS
*RC U1011:A 1.293e-07
*RC U746:B 6.541e-08
*END

*R_NET x2\[7\] 3.016e-02
*DRIVER x2_reg\[7\]:Q
*CELL DFFHQX2
*C2_R1_C1 1.508e-02 1.133e-05 1.508e-02 
*LOADS
*RC U989:A 1.055e-07
*RC U745:B 6.541e-08
*END

*R_NET x2\[6\] 3.436e-02
*DRIVER x2_reg\[6\]:Q
*CELL DFFQX4
*C2_R1_C1 1.718e-02 1.133e-05 1.718e-02 
*LOADS
*RC U2525:A 1.293e-07
*RC U744:B 6.541e-08
*END

*R_NET x2\[5\] 2.759e-02
*DRIVER x2_reg\[5\]:Q
*CELL DFFHQX4
*C2_R1_C1 1.379e-02 1.133e-05 1.379e-02 
*LOADS
*RC U998:A 9.092e-08
*RC U743:B 6.541e-08
*END

*R_NET x2\[4\] 3.016e-02
*DRIVER x2_reg\[4\]:Q
*CELL DFFHQX4
*C2_R1_C1 1.508e-02 1.133e-05 1.508e-02 
*LOADS
*RC U995:A 1.055e-07
*RC U742:B 6.541e-08
*END

*R_NET x2\[3\] 3.436e-02
*DRIVER x2_reg\[3\]:Q
*CELL DFFHQX4
*C2_R1_C1 1.718e-02 1.133e-05 1.718e-02 
*LOADS
*RC U2550:A 1.293e-07
*RC U741:B 6.541e-08
*END

*R_NET x2\[2\] 2.759e-02
*DRIVER x2_reg\[2\]:Q
*CELL DFFHQX4
*C2_R1_C1 1.379e-02 1.133e-05 1.379e-02 
*LOADS
*RC U1004:A 9.092e-08
*RC U740:B 6.541e-08
*END

*R_NET x2\[1\] 2.759e-02
*DRIVER x2_reg\[1\]:Q
*CELL DFFQX4
*C2_R1_C1 1.379e-02 1.133e-05 1.379e-02 
*LOADS
*RC U996:A 9.092e-08
*RC U739:B 6.541e-08
*END

*R_NET x2\[0\] 2.759e-02
*DRIVER x2_reg\[0\]:Q
*CELL DFFQX4
*C2_R1_C1 1.379e-02 1.133e-05 1.379e-02 
*LOADS
*RC U2554:A 9.092e-08
*RC U738:B 6.541e-08
*END

*R_NET x2_x_raw_round\[14\] 1.133e-02
*DRIVER U2936:Y
*CELL XOR2X1
*C2_R1_C1 5.667e-03 5.667e-06 5.667e-03 
*LOADS
*RC x3_reg\[6\]:D 6.422e-08
*END

*R_NET x2_x_raw_round\[13\] 1.133e-02
*DRIVER U2899:Y
*CELL XNOR2X1
*C2_R1_C1 5.667e-03 5.667e-06 5.667e-03 
*LOADS
*RC x3_reg\[5\]:D 6.422e-08
*END

*R_NET x2_x_raw_round\[12\] 1.224e-02
*DRIVER U2962:Y
*CELL XOR2X1
*C2_R1_C1 6.119e-03 5.667e-06 6.119e-03 
*LOADS
*RC x3_reg\[4\]:D 6.934e-08
*END

*R_NET x2_x_raw_round\[11\] 1.133e-02
*DRIVER U2952:Y
*CELL XOR2X1
*C2_R1_C1 5.667e-03 5.667e-06 5.667e-03 
*LOADS
*RC x3_reg\[3\]:D 6.422e-08
*END

*R_NET x2_x_raw_round\[10\] 1.133e-02
*DRIVER U2955:Y
*CELL XOR2X1
*C2_R1_C1 5.667e-03 5.667e-06 5.667e-03 
*LOADS
*RC x3_reg\[2\]:D 6.422e-08
*END

*R_NET x2_x_raw_round\[9\] 1.133e-02
*DRIVER U2903:Y
*CELL XNOR2X1
*C2_R1_C1 5.667e-03 5.667e-06 5.667e-03 
*LOADS
*RC x3_reg\[1\]:D 6.422e-08
*END

*R_NET x2_x_raw_round\[8\] 1.133e-02
*DRIVER U2872:Y
*CELL XNOR2X1
*C2_R1_C1 5.667e-03 5.667e-06 5.667e-03 
*LOADS
*RC x3_reg\[0\]:D 6.422e-08
*END

*R_NET state 7.522e-02
*DRIVER state_reg:Q
*CELL DFFQX1
*C2_R1_C1 3.761e-02 2.833e-05 3.761e-02 
*LOADS
*RC U942:B 8.800e-08
*RC U1026:A 1.293e-07
*RC U760:A0N 6.275e-08
*RC U758:A0N 6.275e-08
*RC U1192:A 8.346e-08
*END

*R_NET cycle_cnt\[2\] 1.014e-01
*DRIVER cycle_cnt_reg\[2\]:Q
*CELL DFFQX2
*C2_R1_C1 5.070e-02 4.533e-05 5.070e-02 
*LOADS
*RC U1086:A 7.082e-08
*RC U21:A 7.345e-08
*RC U3151:C 9.139e-08