*SPEF "IEEE 1481-1999"
*DESIGN "Bicubic"
*DATE "Fri Aug 22 16:49:02 2025"
*VENDOR "SYNOPSYS INC"
*PROGRAM "Synopsys Design Compiler cmos"
*VERSION "W-2024.09-SP2"
*DESIGN_FLOW "SYNTHESIS"
*DIVIDER /
*DELIMITER :
*BUS_DELIMITER []
*T_UNIT 1.0 NS
*C_UNIT 1.0 PF
*R_UNIT 1.0 KOHM
*L_UNIT 1.0 HENRY

*PORTS

CLK I *L 0.000e+00 *S 0.000e+00 0.000e+00 
RST I *L 0.000e+00 *S 3.143e-02 3.143e-02 
SW\[4\] I *L 0.000e+00 *S 1.446e-03 1.446e-03 
SW\[3\] I *L 0.000e+00 *S 1.446e-03 1.446e-03 
SW\[2\] I *L 0.000e+00 *S 1.446e-03 1.446e-03 
SW\[1\] I *L 0.000e+00 *S 1.446e-03 1.446e-03 
SW\[0\] I *L 0.000e+00 *S 1.528e-03 1.528e-03 
SH\[4\] I *L 0.000e+00 *S 2.541e-03 2.541e-03 
SH\[3\] I *L 0.000e+00 *S 3.696e-03 3.696e-03 
SH\[2\] I *L 0.000e+00 *S 2.954e-03 2.954e-03 
SH\[1\] I *L 0.000e+00 *S 4.660e-03 4.660e-03 
SH\[0\] I *L 0.000e+00 *S 6.120e-03 6.120e-03 
TW\[5\] I *L 0.000e+00 *S 1.289e-02 1.289e-02 
TW\[4\] I *L 0.000e+00 *S 1.374e-02 1.374e-02 
TW\[3\] I *L 0.000e+00 *S 1.377e-02 1.377e-02 
TW\[2\] I *L 0.000e+00 *S 1.817e-02 1.817e-02 
TW\[1\] I *L 0.000e+00 *S 1.933e-02 1.933e-02 
TW\[0\] I *L 0.000e+00 *S 1.779e-02 1.779e-02 
TH\[5\] I *L 0.000e+00 *S 1.270e-02 1.270e-02 
TH\[4\] I *L 0.000e+00 *S 1.308e-02 1.308e-02 
TH\[3\] I *L 0.000e+00 *S 1.293e-02 1.293e-02 
TH\[2\] I *L 0.000e+00 *S 1.210e-02 1.210e-02 
TH\[1\] I *L 0.000e+00 *S 1.288e-02 1.288e-02 
TH\[0\] I *L 0.000e+00 *S 1.619e-02 1.619e-02 
DONE O *L 1.000e+00 *S 5.748e-01 3.918e-01 

*R_NET CLK 9.562e-01
*DRIVER CLK
*CELL NULL
*C2_R1_C1 4.781e-01 4.590e-04 4.781e-01 
*LOADS
*RC sns_divider\/remainder_reg\[6\]:CK 6.681e-08
*RC next_rem_v_reg\[6\]:CK 6.681e-08
*RC next_rem_v_reg\[0\]:CK 6.701e-08
*RC coord_v_reg\[0\]:CK 6.850e-08
*RC next_mode_reg:CK 6.681e-08
*RC coord_h_reg\[2\]:CK 6.850e-08
*RC coord_h_reg\[1\]:CK 6.850e-08
*RC coord_v_reg\[4\]:CK 6.850e-08
*RC cycle_cnt_lv2_reg\[4\]:CK 6.850e-08
*RC DONE_reg:CK 6.681e-08
*RC cycle_cnt_lv2_reg\[7\]:CK 6.681e-08
*RC rem_h_reg\[3\]:CK 6.681e-08
*RC rem_h_reg\[2\]:CK 6.681e-08
*RC cycle_cnt_lv2_reg\[6\]:CK 6.850e-08
*RC cycle_cnt_lv2_reg\[5\]:CK 6.681e-08
*RC coord_v_reg\[5\]:CK 6.850e-08
*RC coord_v_reg\[6\]:CK 6.681e-08
*RC rem_h_reg\[1\]:CK 6.681e-08
*RC cycle_cnt_lv2_reg\[0\]:CK 6.850e-08
*RC cycle_cnt_lv2_reg\[1\]:CK 6.681e-08
*RC cycle_cnt_lv2_reg\[3\]:CK 6.681e-08
*RC cycle_cnt_lv2_reg\[2\]:CK 6.850e-08
*RC rem_h_reg\[0\]:CK 6.681e-08
*RC coord_h_reg\[4\]:CK 6.681e-08
*RC state_reg:CK 6.681e-08
*RC coord_v_reg\[1\]:CK 6.850e-08
*RC coord_v_reg\[2\]:CK 6.681e-08
*RC coord_v_reg\[3\]:CK 6.681e-08
*RC coord_h_reg\[3\]:CK 6.681e-08
*RC coord_h_reg\[5\]:CK 6.681e-08
*RC coord_h_reg\[0\]:CK 6.681e-08
*RC coord_h_reg\[6\]:CK 6.681e-08
*RC prev_coord_v_reg\[0\]:CK 6.681e-08
*RC prev_coord_v_reg\[1\]:CK 6.681e-08
*RC prev_coord_v_reg\[2\]:CK 6.681e-08
*RC prev_coord_v_reg\[3\]:CK 6.681e-08
*RC prev_coord_v_reg\[4\]:CK 6.681e-08
*RC prev_coord_v_reg\[5\]:CK 6.681e-08
*RC prev_coord_v_reg\[6\]:CK 6.681e-08
*RC prev_coord_h_reg\[0\]:CK 6.681e-08
*RC prev_coord_h_reg\[1\]:CK 6.681e-08
*RC prev_coord_h_reg\[2\]:CK 6.681e-08
*RC prev_coord_h_reg\[3\]:CK 6.681e-08
*RC prev_coord_h_reg\[4\]:CK 6.681e-08
*RC prev_coord_h_reg\[5\]:CK 6.681e-08
*RC prev_coord_h_reg\[6\]:CK 6.681e-08
*RC prev_mode_reg:CK 6.681e-08
*RC cycle_cnt_reg\[0\]:CK 6.681e-08
*RC cycle_cnt_reg\[2\]:CK 6.681e-08
*RC cycle_cnt_reg\[1\]:CK 6.681e-08
*RC rem_v_reg\[2\]:CK 6.681e-08
*RC rem_v_reg\[3\]:CK 6.681e-08
*RC rem_v_reg\[4\]:CK 6.681e-08
*RC rem_v_reg\[5\]:CK 6.681e-08
*RC rem_v_reg\[6\]:CK 6.681e-08
*RC rem_v_reg\[0\]:CK 6.681e-08
*RC rem_v_reg\[1\]:CK 6.681e-08
*RC rem_h_reg\[4\]:CK 6.681e-08
*RC sns_divider\/remainder_reg\[5\]:CK 6.681e-08
*RC sns_divider\/remainder_reg\[0\]:CK 6.681e-08
*RC next_rem_v_reg\[1\]:CK 6.681e-08
*RC sns_divider\/remainder_reg\[3\]:CK 6.681e-08
*RC sns_divider\/remainder_reg\[2\]:CK 6.681e-08
*RC sns_divider\/remainder_reg\[1\]:CK 6.681e-08
*RC rem_h_reg\[5\]:CK 6.681e-08
*RC next_rem_v_reg\[3\]:CK 6.681e-08
*RC sns_divider\/qoutient_reg\[7\]:CK 6.681e-08
*RC sns_divider\/qoutient_reg\[6\]:CK 6.681e-08
*RC sns_divider\/qoutient_reg\[5\]:CK 6.681e-08
*RC sns_divider\/qoutient_reg\[4\]:CK 6.681e-08
*RC sns_divider\/qoutient_reg\[3\]:CK 6.681e-08
*RC sns_divider\/qoutient_reg\[2\]:CK 6.681e-08
*RC sns_divider\/qoutient_reg\[1\]:CK 6.681e-08
*RC mode_reg:CK 6.681e-08
*RC sns_divider\/qoutient_reg\[0\]:CK 6.681e-08
*RC sns_divider\/remainder_reg\[4\]:CK 6.681e-08
*RC next_rem_v_reg\[2\]:CK 6.681e-08
*RC next_rem_v_reg\[4\]:CK 6.681e-08
*RC next_rem_v_reg\[5\]:CK 6.681e-08
*RC rem_h_reg\[6\]:CK 6.681e-08
*RC u_ResultSRAM:CLK 5.667e-08
*DRIVER u_ResultSRAM:CLK
*CELL ResultSRAM
*C2_R1_C1 4.781e-01 4.590e-04 4.781e-01 
*LOADS
*RC sns_divider\/remainder_reg\[6\]:CK 6.681e-08
*RC next_rem_v_reg\[6\]:CK 6.681e-08
*RC next_rem_v_reg\[0\]:CK 6.701e-08
*RC coord_v_reg\[0\]:CK 6.850e-08
*RC next_mode_reg:CK 6.681e-08
*RC coord_h_reg\[2\]:CK 6.850e-08
*RC coord_h_reg\[1\]:CK 6.850e-08
*RC coord_v_reg\[4\]:CK 6.850e-08
*RC cycle_cnt_lv2_reg\[4\]:CK 6.850e-08
*RC DONE_reg:CK 6.681e-08
*RC cycle_cnt_lv2_reg\[7\]:CK 6.681e-08
*RC rem_h_reg\[3\]:CK 6.681e-08
*RC rem_h_reg\[2\]:CK 6.681e-08
*RC cycle_cnt_lv2_reg\[6\]:CK 6.850e-08
*RC cycle_cnt_lv2_reg\[5\]:CK 6.681e-08
*RC coord_v_reg\[5\]:CK 6.850e-08
*RC coord_v_reg\[6\]:CK 6.681e-08
*RC rem_h_reg\[1\]:CK 6.681e-08
*RC cycle_cnt_lv2_reg\[0\]:CK 6.850e-08
*RC cycle_cnt_lv2_reg\[1\]:CK 6.681e-08
*RC cycle_cnt_lv2_reg\[3\]:CK 6.681e-08
*RC cycle_cnt_lv2_reg\[2\]:CK 6.850e-08
*RC rem_h_reg\[0\]:CK 6.681e-08
*RC coord_h_reg\[4\]:CK 6.681e-08
*RC state_reg:CK 6.681e-08
*RC coord_v_reg\[1\]:CK 6.850e-08
*RC coord_v_reg\[2\]:CK 6.681e-08
*RC coord_v_reg\[3\]:CK 6.681e-08
*RC coord_h_reg\[3\]:CK 6.681e-08
*RC coord_h_reg\[5\]:CK 6.681e-08
*RC coord_h_reg\[0\]:CK 6.681e-08
*RC coord_h_reg\[6\]:CK 6.681e-08
*RC prev_coord_v_reg\[0\]:CK 6.681e-08
*RC prev_coord_v_reg\[1\]:CK 6.681e-08
*RC prev_coord_v_reg\[2\]:CK 6.681e-08
*RC prev_coord_v_reg\[3\]:CK 6.681e-08
*RC prev_coord_v_reg\[4\]:CK 6.681e-08
*RC prev_coord_v_reg\[5\]:CK 6.681e-08
*RC prev_coord_v_reg\[6\]:CK 6.681e-08
*RC prev_coord_h_reg\[0\]:CK 6.681e-08
*RC prev_coord_h_reg\[1\]:CK 6.681e-08
*RC prev_coord_h_reg\[2\]:CK 6.681e-08
*RC prev_coord_h_reg\[3\]:CK 6.681e-08
*RC prev_coord_h_reg\[4\]:CK 6.681e-08
*RC prev_coord_h_reg\[5\]:CK 6.681e-08
*RC prev_coord_h_reg\[6\]:CK 6.681e-08
*RC prev_mode_reg:CK 6.681e-08
*RC cycle_cnt_reg\[0\]:CK 6.681e-08
*RC cycle_cnt_reg\[2\]:CK 6.681e-08
*RC cycle_cnt_reg\[1\]:CK 6.681e-08
*RC rem_v_reg\[2\]:CK 6.681e-08
*RC rem_v_reg\[3\]:CK 6.681e-08
*RC rem_v_reg\[4\]:CK 6.681e-08
*RC rem_v_reg\[5\]:CK 6.681e-08
*RC rem_v_reg\[6\]:CK 6.681e-08
*RC rem_v_reg\[0\]:CK 6.681e-08
*RC rem_v_reg\[1\]:CK 6.681e-08
*RC rem_h_reg\[4\]:CK 6.681e-08
*RC sns_divider\/remainder_reg\[5\]:CK 6.681e-08
*RC sns_divider\/remainder_reg\[0\]:CK 6.681e-08
*RC next_rem_v_reg\[1\]:CK 6.681e-08
*RC sns_divider\/remainder_reg\[3\]:CK 6.681e-08
*RC sns_divider\/remainder_reg\[2\]:CK 6.681e-08
*RC sns_divider\/remainder_reg\[1\]:CK 6.681e-08
*RC rem_h_reg\[5\]:CK 6.681e-08
*RC next_rem_v_reg\[3\]:CK 6.681e-08
*RC sns_divider\/qoutient_reg\[7\]:CK 6.681e-08
*RC sns_divider\/qoutient_reg\[6\]:CK 6.681e-08
*RC sns_divider\/qoutient_reg\[5\]:CK 6.681e-08
*RC sns_divider\/qoutient_reg\[4\]:CK 6.681e-08
*RC sns_divider\/qoutient_reg\[3\]:CK 6.681e-08
*RC sns_divider\/qoutient_reg\[2\]:CK 6.681e-08
*RC sns_divider\/qoutient_reg\[1\]:CK 6.681e-08
*RC mode_reg:CK 6.681e-08
*RC sns_divider\/qoutient_reg\[0\]:CK 6.681e-08
*RC sns_divider\/remainder_reg\[4\]:CK 6.681e-08
*RC next_rem_v_reg\[2\]:CK 6.681e-08
*RC next_rem_v_reg\[4\]:CK 6.681e-08
*RC next_rem_v_reg\[5\]:CK 6.681e-08
*RC rem_h_reg\[6\]:CK 6.681e-08
*END

*R_NET RST 3.143e-01
*DRIVER RST
*CELL NULL
*C2_R1_C1 1.571e-01 1.303e-04 1.571e-01 
*LOADS
*RC U899:A 7.670e-08
*RC U1011:C1 7.620e-08
*RC U1012:A1 7.729e-08
*RC U1013:A1 7.729e-08
*RC U1014:A1 7.729e-08
*RC U1133:A 8.658e-08
*RC U1147:A 8.658e-08
*RC U1369:B 1.148e-07
*RC U1550:B0 8.913e-08
*RC U1551:A 7.299e-08
*RC U1600:A 7.299e-08
*RC U1602:B 8.797e-08
*RC U1685:B0 7.241e-08
*RC U1765:B 7.235e-08
*RC U1766:B 7.235e-08
*RC U1767:B 7.235e-08
*RC U1768:B 7.235e-08
*RC U1769:B 7.235e-08
*RC U1770:B 7.235e-08
*RC U1771:B 7.235e-08
*RC U1773:A1 7.616e-08
*RC U1871:A1 6.632e-08
*RC U1904:B0 6.372e-08
*END

*R_NET SW\[4\] 1.446e-02
*DRIVER SW\[4\]
*CELL NULL
*C2_R1_C1 7.232e-03 5.667e-06 7.232e-03 
*LOADS
*RC U1079:A 8.196e-08
*END

*R_NET SW\[3\] 1.446e-02
*DRIVER SW\[3\]
*CELL NULL
*C2_R1_C1 7.232e-03 5.667e-06 7.232e-03 
*LOADS
*RC U981:A 8.196e-08
*END

*R_NET SW\[2\] 1.446e-02
*DRIVER SW\[2\]
*CELL NULL
*C2_R1_C1 7.232e-03 5.667e-06 7.232e-03 
*LOADS
*RC U1573:A 8.196e-08
*END

*R_NET SW\[1\] 1.446e-02
*DRIVER SW\[1\]
*CELL NULL
*C2_R1_C1 7.232e-03 5.667e-06 7.232e-03 
*LOADS
*RC U989:A 8.196e-08
*END

*R_NET SW\[0\] 1.528e-02
*DRIVER SW\[0\]
*CELL NULL
*C2_R1_C1 7.640e-03 5.667e-06 7.640e-03 
*LOADS
*RC U904:B 8.658e-08
*END

*R_NET SH\[4\] 2.541e-02
*DRIVER SH\[4\]
*CELL NULL
*C2_R1_C1 1.271e-02 1.133e-05 1.271e-02 
*LOADS
*RC U896:B 7.319e-08
*RC U1458:A 7.082e-08
*END

*R_NET SH\[3\] 3.696e-02
*DRIVER SH\[3\]
*CELL NULL
*C2_R1_C1 1.848e-02 1.700e-05 1.848e-02 
*LOADS
*RC U897:B 7.357e-08
*RC U1003:A 6.496e-08
*RC U1216:B 7.093e-08
*END

*R_NET SH\[2\] 2.954e-02
*DRIVER SH\[2\]
*CELL NULL
*C2_R1_C1 1.477e-02 1.133e-05 1.477e-02 
*LOADS
*RC U1000:A 9.092e-08
*RC U1451:B 7.644e-08
*END

*R_NET SH\[1\] 4.660e-02
*DRIVER SH\[1\]
*CELL NULL
*C2_R1_C1 2.330e-02 1.700e-05 2.330e-02 
*LOADS
*RC U1004:A 6.496e-08
*RC U1439:B 1.148e-07
*RC U1443:A 8.432e-08
*END

*R_NET SH\[0\] 6.120e-02
*DRIVER SH\[0\]
*CELL NULL
*C2_R1_C1 3.060e-02 2.267e-05 3.060e-02 
*LOADS
*RC U1439:A 1.174e-07
*RC U1443:B 8.762e-08
*RC U1445:A 7.082e-08
*RC U1533:B 7.093e-08
*END

*R_NET TW\[5\] 1.289e-01
*DRIVER TW\[5\]
*CELL NULL
*C2_R1_C1 6.444e-02 5.667e-05 6.444e-02 
*LOADS
*RC U802:A 6.455e-08
*RC U829:B 6.524e-08
*RC U844:A 7.082e-08
*RC U1177:B 8.314e-08
*RC U1207:B 8.314e-08
*RC U1247:B 8.314e-08
*RC U1288:B 6.524e-08
*RC U1289:A 7.278e-08
*RC U1640:A 7.523e-08
*RC U1778:B1 6.703e-08
*END

*R_NET TW\[4\] 1.374e-01
*DRIVER TW\[4\]
*CELL NULL
*C2_R1_C1 6.870e-02 5.100e-05 6.870e-02 
*LOADS
*RC intadd_1\/U3:B 6.822e-08
*RC U812:A 6.455e-08
*RC U829:A 6.455e-08
*RC U1173:B 7.357e-08
*RC U1174:A 7.082e-08
*RC U1244:B 1.454e-07
*RC U1516:B 1.454e-07
*RC U1593:A 7.082e-08
*RC U1633:A 7.523e-08
*END

*R_NET TW\[3\] 1.377e-01
*DRIVER TW\[3\]
*CELL NULL
*C2_R1_C1 6.884e-02 5.667e-05 6.884e-02 
*LOADS
*RC U813:A 6.455e-08
*RC U843:B 6.524e-08
*RC U852:B 6.524e-08
*RC U1130:A 1.055e-07
*RC U1238:B 8.314e-08
*RC U1284:B 8.797e-08
*RC U1512:B 8.314e-08
*RC U1626:A 7.523e-08
*RC U1776:B1 6.703e-08
*RC U1939:B 8.314e-08
*END

*R_NET TW\[2\] 1.817e-01
*DRIVER TW\[2\]
*CELL NULL
*C2_R1_C1 9.084e-02 7.367e-05 9.084e-02 
*LOADS
*RC U824:A 7.299e-08
*RC U843:A 6.455e-08
*RC U1111:A 6.419e-08
*RC U1122:B 8.762e-08
*RC U1127:B 6.524e-08
*RC U1128:A 9.092e-08
*RC U1232:B 1.454e-07
*RC U1506:B 8.314e-08
*RC U1614:B 7.093e-08
*RC U1616:B 6.524e-08
*RC U1774:A1 6.796e-08
*RC U1775:A1 6.825e-08
*RC intadd_1\/U5:B 8.314e-08
*END

*R_NET TW\[1\] 1.933e-01
*DRIVER TW\[1\]
*CELL NULL
*C2_R1_C1 9.664e-02 8.500e-05 9.664e-02 
*LOADS
*RC intadd_1\/U6:B 8.314e-08
*RC U1002:A 7.786e-08
*RC U1127:A 6.644e-08
*RC U1170:A 7.523e-08
*RC U1212:B 6.479e-08
*RC U1233:B 8.314e-08
*RC U1280:A 9.092e-08
*RC U1282:A1 6.796e-08
*RC U1309:B 7.319e-08
*RC U1310:A0 6.739e-08
*RC U1311:A1N 6.276e-08
*RC U1345:A0 7.495e-08
*RC U1388:A 7.401e-08
*RC U1508:B 6.822e-08
*RC U1618:B 6.524e-08
*END

*R_NET TW\[0\] 1.779e-01
*DRIVER TW\[0\]
*CELL NULL
*C2_R1_C1 8.894e-02 7.933e-05 8.894e-02 
*LOADS
*RC U818:A 7.278e-08
*RC U820:A 6.455e-08
*RC U856:B0 6.798e-08
*RC U861:A 6.644e-08
*RC U990:A 7.523e-08
*RC U1002:B 7.890e-08
*RC U1125:A 6.945e-08
*RC U1170:B 7.357e-08
*RC U1184:A 7.523e-08
*RC U1236:B 7.684e-08
*RC U1260:A 7.299e-08
*RC U1330:B 7.093e-08
*RC U1386:A 7.401e-08
*RC U1507:A 6.913e-08
*END

*R_NET TH\[5\] 1.270e-01
*DRIVER TH\[5\]
*CELL NULL
*C2_R1_C1 6.349e-02 5.667e-05 6.349e-02 
*LOADS
*RC U802:B 6.524e-08
*RC U828:B 6.524e-08
*RC U833:A 6.496e-08
*RC U862:B 7.319e-08
*RC U1137:A 6.904e-08
*RC U1177:A 8.196e-08
*RC U1243:B 7.357e-08
*RC U1497:B 8.762e-08
*RC U1502:B 6.524e-08
*RC U1640:B 7.357e-08
*END

*R_NET TH\[4\] 1.308e-01
*DRIVER TH\[4\]
*CELL NULL
*C2_R1_C1 6.538e-02 5.667e-05 6.538e-02 
*LOADS
*RC intadd_1\/U3:A 6.718e-08
*RC U812:B 6.524e-08
*RC U836:B 6.524e-08
*RC U992:B 7.357e-08
*RC U993:B 1.148e-07
*RC U1139:A 6.904e-08
*RC U1229:B 7.357e-08
*RC U1496:B 6.524e-08
*RC U1498:B 7.357e-08
*RC U1633:B 7.357e-08
*END

*R_NET TH\[3\] 1.293e-01
*DRIVER TH\[3\]
*CELL NULL
*C2_R1_C1 6.467e-02 5.667e-05 6.467e-02 
*LOADS
*RC U813:B 6.524e-08
*RC U842:B 7.014e-08
*RC U1126:A 7.299e-08
*RC U1141:A 6.904e-08
*RC U1167:B 8.762e-08
*RC U1213:B 6.524e-08
*RC U1230:B 7.357e-08
*RC U1499:B 7.357e-08
*RC U1626:B 7.357e-08
*RC U1939:A 8.196e-08
*END

*R_NET TH\[2\] 1.210e-01
*DRIVER TH\[2\]
*CELL NULL
*C2_R1_C1 6.051e-02 5.100e-05 6.051e-02 
*LOADS
*RC U845:B 7.093e-08
*RC U846:B 8.762e-08
*RC U1116:B 8.762e-08
*RC U1126:B 7.093e-08
*RC U1140:A 6.904e-08
*RC U1155:B 7.890e-08
*RC U1209:B 6.524e-08
*RC U1500:B 7.357e-08
*RC intadd_1\/U5:A 8.196e-08
*END

*R_NET TH\[1\] 1.288e-01
*DRIVER TH\[1\]
*CELL NULL
*C2_R1_C1 6.442e-02 5.100e-05 6.442e-02 
*LOADS
*RC U846:A 8.432e-08
*RC U900:A 7.401e-08
*RC U946:A 8.163e-08
*RC U1001:B 1.148e-07
*RC U1138:A 6.904e-08
*RC U1155:A 7.786e-08
*RC U1413:A0 6.739e-08
*RC U1418:A 6.644e-08
*RC U1501:A 9.465e-08
*END

*R_NET TH\[0\] 1.619e-01
*DRIVER TH\[0\]
*CELL NULL
*C2_R1_C1 8.093e-02 6.800e-05 8.093e-02 
*LOADS
*RC U818:B 7.131e-08
*RC U820:B 6.524e-08
*RC U850:B 6.479e-08
*RC U900:B 7.319e-08
*RC U1001:A 1.174e-07
*RC U1129:A 8.163e-08
*RC U1136:A 6.904e-08
*RC U1191:A 7.401e-08
*RC U1196:A 7.401e-08
*RC U1236:A 6.913e-08
*RC U1329:B 7.093e-08
*RC U1501:B 8.658e-08
*END

*R_NET n1729 1.896e-02
*DRIVER DONE_reg:Q
*CELL DFFQX1
*C2_R1_C1 9.480e-03 5.667e-06 9.480e-03 
*LOADS
*RC U1148:A 1.074e-07
*END

*R_NET frac_8_val\[7\] 1.144e-02
*DRIVER sns_divider\/qoutient_reg\[7\]:Q
*CELL DFFQX1
*C2_R1_C1 5.718e-03 5.667e-06 5.718e-03 
*LOADS
*RC U759:A1 6.480e-08
*END

*R_NET frac_8_val\[6\] 2.255e-02
*DRIVER sns_divider\/qoutient_reg\[6\]:Q
*CELL DFFQX1
*C2_R1_C1 1.127e-02 1.133e-05 1.127e-02 
*LOADS
*RC U1765:AN 6.297e-08
*RC U760:A1 6.480e-08
*END

*R_NET frac_8_val\[5\] 2.255e-02
*DRIVER sns_divider\/qoutient_reg\[5\]:Q
*CELL DFFQX1
*C2_R1_C1 1.127e-02 1.133e-05 1.127e-02 
*LOADS
*RC U1769:AN 6.297e-08
*RC U761:A1 6.480e-08
*END

*R_NET frac_8_val\[4\] 2.255e-02
*DRIVER sns_divider\/qoutient_reg\[4\]:Q
*CELL DFFQX1
*C2_R1_C1 1.127e-02 1.133e-05 1.127e-02 
*LOADS
*RC U1768:AN 6.297e-08
*RC U762:A1 6.480e-08
*END

*R_NET frac_8_val\[3\] 2.255e-02
*DRIVER sns_divider\/qoutient_reg\[3\]:Q
*CELL DFFQX1
*C2_R1_C1 1.127e-02 1.133e-05 1.127e-02 
*LOADS
*RC U1767:AN 6.297e-08
*RC U763:A1 6.480e-08
*END

*R_NET frac_8_val\[2\] 2.255e-02
*DRIVER sns_divider\/qoutient_reg\[2\]:Q
*CELL DFFQX1
*C2_R1_C1 1.127e-02 1.133e-05 1.127e-02 
*LOADS
*RC U1771:AN 6.297e-08
*RC U764:A1 6.480e-08
*END

*R_NET frac_8_val\[1\] 2.255e-02
*DRIVER sns_divider\/qoutient_reg\[1\]:Q
*CELL DFFQX1
*C2_R1_C1 1.127e-02 1.133e-05 1.127e-02 
*LOADS
*RC U1770:AN 6.297e-08
*RC U765:A1 6.480e-08
*END

*R_NET frac_8_val\[0\] 2.255e-02
*DRIVER sns_divider\/qoutient_reg\[0\]:Q
*CELL DFFQX1
*C2_R1_C1 1.127e-02 1.133e-05 1.127e-02 
*LOADS
*RC U1766:AN 6.297e-08
*RC U766:A1 6.480e-08
*END

*R_NET state 4.845e-02
*DRIVER state_reg:Q
*CELL DFFQX1
*C2_R1_C1 2.422e-02 2.267e-05 2.422e-02 
*LOADS
*RC U816:A 6.864e-08
*RC U995:A 7.082e-08
*RC U1228:A 6.864e-08
*RC U1929:A 6.644e-08
*END

*R_NET cycle_cnt\[2\] 3.707e-02
*DRIVER cycle_cnt_reg\[2\]:Q
*CELL DFFQX1
*C2_R1_C1 1.853e-02 1.700e-05 1.853e-02 
*LOADS
*RC U811:A 7.278e-08
*RC U996:A 7.082e-08
*RC U1143:A 6.646e-08
*END

*R_NET cycle_cnt\[1\] 3.690e-02
*DRIVER cycle_cnt_reg\[1\]:Q
*CELL DFFQX1
*C2_R1_C1 1.845e-02 1.700e-05 1.845e-02 
*LOADS
*RC U1119:B 7.131e-08
*RC U1143:B 6.479e-08
*RC U1494:A 7.299e-08
*END

*R_NET cycle_cnt\[0\] 4.881e-02
*DRIVER cycle_cnt_reg\[0\]:Q
*CELL DFFQX1
*C2_R1_C1 2.441e-02 2.267e-05 2.441e-02 
*LOADS
*RC U1119:A 7.278e-08
*RC U1494:B 7.093e-08
*RC U1691:A 6.644e-08
*RC U1728:A 6.646e-08
*END

*R_NET mode 5.295e-02
*DRIVER mode_reg:Q
*CELL DFFQX1
*C2_R1_C1 2.647e-02 2.267e-05 2.647e-02 
*LOADS
*RC U1063:B 8.797e-08
*RC U1668:B 7.332e-08
*RC U1672:C 7.378e-08
*RC U1687:A 6.496e-08
*END

*R_NET SRAM_data_o\[7\] 0.000e+00
*DRIVER u_ResultSRAM:Q\[7\]
*CELL ResultSRAM
*C2_R1_C1 0.000e+00 0.000e+00 0.000e+00 
*LOADS
*END

*R_NET SRAM_data_o\[6\] 0.000e+00
*DRIVER u_ResultSRAM:Q\[6\]
*CELL ResultSRAM
*C2_R1_C1 0.000e+00 0.000e+00 0.000e+00 
*LOADS
*END

*R_NET SRAM_data_o\[5\] 0.000e+00
*DRIVER u_ResultSRAM:Q\[5\]
*CELL ResultSRAM
*C2_R1_C1 0.000e+00 0.000e+00 0.000e+00 
*LOADS
*END

*R_NET SRAM_data_o\[4\] 0.000e+00
*DRIVER u_ResultSRAM:Q\[4\]
*CELL ResultSRAM
*C2_R1_C1 0.000e+00 0.000e+00 0.000e+00 
*LOADS
*END

*R_NET SRAM_data_o\[3\] 0.000e+00
*DRIVER u_ResultSRAM:Q\[3\]
*CELL ResultSRAM
*C2_R1_C1 0.000e+00 0.000e+00 0.000e+00 
*LOADS
*END

*R_NET SRAM_data_o\[2\] 0.000e+00
*DRIVER u_ResultSRAM:Q\[2\]
*CELL ResultSRAM
*C2_R1_C1 0.000e+00 0.000e+00 0.000e+00 
*LOADS
*END

*R_NET SRAM_data_o\[1\] 0.000e+00
*DRIVER u_ResultSRAM:Q\[1\]
*CELL ResultSRAM
*C2_R1_C1 0.000e+00 0.000e+00 0.000e+00 
*LOADS
*END

*R_NET SRAM_data_o\[0\] 0.000e+00
*DRIVER u_ResultSRAM:Q\[0\]
*CELL ResultSRAM
*C2_R1_C1 0.000e+00 0.000e+00 0.000e+00 
*LOADS
*END

*R_NET SRAM_CEN 1.000e-02
*DRIVER U746:Y
*CELL AO22X1
*C2_R1_C1 5.000e-03 5.667e-06 5.000e-03 
*LOADS
*RC u_ResultSRAM:CEN 5.667e-08
*DRIVER u_ResultSRAM:CEN
*CELL ResultSRAM
*C2_R1_C1 5.000e-03 5.667e-06 5.000e-03 
*LOADS
*END

*R_NET SRAM_WEN 1.000e-02
*DRIVER U758:Y
*CELL AO22X1
*C2_R1_C1 5.000e-03 5.667e-06 5.000e-03 
*LOADS
*RC u_ResultSRAM:WEN 5.667e-08
*DRIVER u_ResultSRAM:WEN
*CELL ResultSRAM
*C2_R1_C1 5.000e-03 5.667e-06 5.000e-03 
*LOADS
*END

*R_NET SRAM_addr\[13\] 1.000e-02
*DRIVER U747:Y
*CELL OAI2BB1XL
*C2_R1_C1 5.000e-03 5.667e-06 5.000e-03 
*LOADS
*RC u_ResultSRAM:A\[13\] 5.667e-08
*DRIVER u_ResultSRAM:A\[13\]
*CELL ResultSRAM
*C2_R1_C1 5.000e-03 5.667e-06 5.000e-03 
*LOADS
*END

*R_NET SRAM_addr\[12\] 1.000e-02
*DRIVER U748:Y
*CELL OAI2BB1XL
*C2_R1_C1 5.000e-03 5.667e-06 5.000e-03 
*LOADS
*RC u_ResultSRAM:A\[12\] 5.667e-08
*DRIVER u_ResultSRAM:A\[12\]
*CELL ResultSRAM
*C2_R1_C1 5.000e-03 5.667e-06 5.000e-03 
*LOADS
*END

*R_NET SRAM_addr\[11\] 1.000e-02
*DRIVER U745:Y
*CELL AND2X1
*C2_R1_C1 5.000e-03 5.667e-06 5.000e-03 
*LOADS
*RC u_ResultSRAM:A\[11\] 5.667e-08
*DRIVER u_ResultSRAM:A\[11\]
*CELL ResultSRAM
*C2_R1_C1 5.000e-03 5.667e-06 5.000e-03 
*LOADS
*END

*R_NET SRAM_addr\[10\] 1.000e-02
*DRIVER U744:Y
*CELL AND2X1
*C2_R1_C1 5.000e-03 5.667e-06 5.000e-03 
*LOADS
*RC u_ResultSRAM:A\[10\] 5.667e-08
*DRIVER u_ResultSRAM:A\[10\]
*CELL ResultSRAM
*C2_R1_C1 5.000e-03 5.667e-06 5.000e-03 
*LOADS
*END

*R_NET SRAM_addr\[9\] 1.000e-02
*DRIVER U749:Y
*CELL OAI2BB1XL
*C2_R1_C1 5.000e-03 5.667e-06 5.000e-03 
*LOADS
*RC u_ResultSRAM:A\[9\] 5.667e-08
*DRIVER u_ResultSRAM:A\[9\]
*CELL ResultSRAM
*C2_R1_C1 5.000e-03 5.667e-06 5.000e-03 
*LOADS
*END

*R_NET SRAM_addr\[8\] 1.000e-02
*DRIVER U743:Y
*CELL AND2X1
*C2_R1_C1 5.000e-03 5.667e-06 5.000e-03 
*LOADS
*RC u_ResultSRAM:A\[8\] 5.667e-08
*DRIVER u_ResultSRAM:A\[8\]
*CELL ResultSRAM
*C2_R1_C1 5.000e-03 5.667e-06 5.000e-03 
*LOADS
*END

*R_NET SRAM_addr\[7\] 1.000e-02
*DRIVER U750:Y
*CELL AO22X1
*C2_R1_C1 5.000e-03 5.667e-06 5.000e-03 
*LOADS
*RC u_ResultSRAM:A\[7\] 5.667e-08
*DRIVER u_ResultSRAM:A\[7\]
*CELL ResultSRAM
*C2_R1_C1 5.000e-03 5.667e-06 5.000e-03 
*LOADS
*END

*R_NET SRAM_addr\[6\] 1.000e-02
*DRIVER U751:Y
*CELL AO22X1
*C2_R1_C1 5.000e-03 5.667e-06 5.000e-03 
*LOADS
*RC u_ResultSRAM:A\[6\] 5.667e-08
*DRIVER u_ResultSRAM:A\[6\]
*CELL ResultSRAM
*C2_R1_C1 5.000e-03 5.667e-06 5.000e-03 
*LOADS
*END

*R_NET SRAM_addr\[5\] 1.000e-02
*DRIVER U752:Y
*CELL AO22X1
*C2_R1_C1 5.000e-03 5.667e-06 5.000e-03 
*LOADS
*RC u_ResultSRAM:A\[5\] 5.667e-08
*DRIVER u_ResultSRAM:A\[5\]
*CELL ResultSRAM
*C2_R1_C1 5.000e-03 5.667e-06 5.000e-03 
*LOADS
*END

*R_NET SRAM_addr\[4\] 1.000e-02
*DRIVER U753:Y
*CELL AO22X1
*C2_R1_C1 5.000e-03 5.667e-06 5.000e-03 
*LOADS
*RC u_ResultSRAM:A\[4\] 5.667e-08
*DRIVER u_ResultSRAM:A\[4\]
*CELL ResultSRAM
*C2_R1_C1 5.000e-03 5.667e-06 5.000e-03 
*LOADS
*END

*R_NET SRAM_addr\[3\] 1.000e-02
*DRIVER U754:Y
*CELL AO22X1
*C2_R1_C1 5.000e-03 5.667e-06 5.000e-03 
*LOADS
*RC u_ResultSRAM:A\[3\] 5.667e-08
*DRIVER u_ResultSRAM:A\[3\]
*CELL ResultSRAM
*C2_R1_C1 5.000e-03 5.667e-06 5.000e-03 
*LOADS
*END

*R_NET SRAM_addr\[2\] 1.000e-02
*DRIVER U755:Y
*CELL AO22X1
*C2_R1_C1 5.000e-03 5.667e-06 5.000e-03 
*LOADS
*RC u_ResultSRAM:A\[2\] 5.667e-08
*DRIVER u_ResultSRAM:A\[2\]
*CELL ResultSRAM
*C2_R1_C1 5.000e-03 5.667e-06 5.000e-03 
*LOADS
*END

*R_NET SRAM_addr\[1\] 1.000e-02
*DRIVER U756:Y
*CELL AO22X1
*C2_R1_C1 5.000e-03 5.667e-06 5.000e-03 
*LOADS
*RC u_ResultSRAM:A\[1\] 5.667e-08
*DRIVER u_ResultSRAM:A\[1\]
*CELL ResultSRAM
*C2_R1_C1 5.000e-03 5.667e-06 5.000e-03 
*LOADS
*END

*R_NET SRAM_addr\[0\] 1.000e-02
*DRIVER U757:Y
*CELL AO22X1
*C2_R1_C1 5.000e-03 5.667e-06 5.000e-03 
*LOADS
*RC u_ResultSRAM:A\[0\] 5.667e-08
*DRIVER u_ResultSRAM:A\[0\]
*CELL ResultSRAM
*C2_R1_C1 5.000e-03 5.667e-06 5.000e-03 
*LOADS
*END

*R_NET SRAM_data_i\[7\] 1.000e-02
*DRIVER U759:Y
*CELL AO22X1
*C2_R1_C1 5.000e-03 5.667e-06 5.000e-03 
*LOADS
*RC u_ResultSRAM:D\[7\] 5.667e-08
*DRIVER u_ResultSRAM:D\[7\]
*CELL ResultSRAM
*C2_R1_C1 5.000e-03 5.667e-06 5.000e-03 
*LOADS
*END

*R_NET SRAM_data_i\[6\] 1.000e-02
*DRIVER U760:Y
*CELL AO22X1
*C2_R1_C1 5.000e-03 5.667e-06 5.000e-03 
*LOADS
*RC u_ResultSRAM:D\[6\] 5.667e-08
*DRIVER u_ResultSRAM:D\[6\]
*CELL ResultSRAM
*C2_R1_C1 5.000e-03 5.667e-06 5.000e-03 
*LOADS
*END

*R_NET SRAM_data_i\[5\] 1.000e-02
*DRIVER U761:Y
*CELL AO22X1
*C2_R1_C1 5.000e-03 5.667e-06 5.000e-03 
*LOADS
*RC u_ResultSRAM:D\[5\] 5.667e-08
*DRIVER u_ResultSRAM:D\[5\]
*CELL ResultSRAM
*C2_R1_C1 5.000e-03 5.667e-06 5.000e-03 
*LOADS
*END

*R_NET SRAM_data_i\[4\] 1.000e-02
*DRIVER U762:Y
*CELL AO22X1
*C2_R1_C1 5.000e-03 5.667e-06 5.000e-03 
*LOADS
*RC u_ResultSRAM:D\[4\] 5.667e-08
*DRIVER u_ResultSRAM:D\[4\]
*CELL ResultSRAM
*C2_R1_C1 5.000e-03 5.667e-06 5.000e-03 
*LOADS
*END

*R_NET SRAM_data_i\[3\] 1.000e-02
*DRIVER U763:Y
*CELL AO22X1
*C2_R1_C1 5.000e-03 5.667e-06 5.000e-03 
*LOADS
*RC u_ResultSRAM:D\[3\] 5.667e-08
*DRIVER u_ResultSRAM:D\[3\]
*CELL ResultSRAM
*C2_R1_C1 5.000e-03 5.667e-06 5.000e-03 
*LOADS
*END

*R_NET SRAM_data_i\[2\] 1.000e-02
*DRIVER U764:Y
*CELL AO22X1
*C2_R1_C1 5.000e-03 5.667e-06 5.000e-03 
*LOADS
*RC u_ResultSRAM:D\[2\] 5.667e-08
*DRIVER u_ResultSRAM:D\[2\]
*CELL ResultSRAM
*C2_R1_C1 5.000e-03 5.667e-06 5.000e-03 
*LOADS
*END

*R_NET SRAM_data_i\[1\] 1.000e-02
*DRIVER U765:Y
*CELL AO22X1
*C2_R1_C1 5.000e-03 5.667e-06 5.000e-03 
*LOADS
*RC u_ResultSRAM:D\[1\] 5.667e-08
*DRIVER u_ResultSRAM:D\[1\]
*CELL ResultSRAM
*C2_R1_C1 5.000e-03 5.667e-06 5.000e-03 
*LOADS
*END

*R_NET SRAM_data_i\[0\] 1.000e-02
*DRIVER U766:Y
*CELL AO22X1
*C2_R1_C1 5.000e-03 5.667e-06 5.000e-03 
*LOADS
*RC u_ResultSRAM:D\[0\] 5.667e-08
*DRIVER u_ResultSRAM:D\[0\]
*CELL ResultSRAM
*C2_R1_C1 5.000e-03 5.667e-06 5.000e-03 
*LOADS
*END

*R_NET cycle_cnt_lv2\[7\] 7.733e-02
*DRIVER cycle_cnt_lv2_reg\[7\]:Q
*CELL DFFQX1
*C2_R1_C1 3.866e-02 3.400e-05 3.866e-02 
*LOADS
*RC U1192:A 7.082e-08
*RC U1250:A 7.299e-08
*RC U1505:B 8.797e-08
*RC U1789:C0 6.764e-08
*RC U1856:B 7.613e-08
*RC U1879:A0N 6.265e-08
*END

*R_NET cycle_cnt_lv2\[6\] 1.401e-01
*DRIVER cycle_cnt_lv2_reg\[6\]:Q
*CELL DFFQX2
*C2_R1_C1 7.005e-02 6.233e-05 7.005e-02 
*LOADS
*RC U964:A 7.299e-08
*RC U1050:B 7.393e-08
*RC U1222:B 7.357e-08
*RC U1205:B 7.357e-08
*RC U1250:B 7.093e-08
*RC U1365:A 7.082e-08
*RC U1504:A 7.523e-08
*RC U1853:A 7.299e-08
*RC U1857:A0 7.473e-08
*RC U1877:C 6.781e-08
*RC U1878:A0 6.739e-08
*END

*R_NET cycle_cnt_lv2\[5\] 1.211e-02
*DRIVER cycle_cnt_lv2_reg\[5\]:Q
*CELL DFFQX1
*C2_R1_C1 6.056e-03 5.667e-06 6.056e-03 
*LOADS
*RC U834:A 6.864e-08
*END

*R_NET cycle_cnt_lv2\[4\] 1.192e-01
*DRIVER cycle_cnt_lv2_reg\[4\]:Q
*CELL DFFQX2
*C2_R1_C1 5.962e-02 5.100e-05 5.962e-02 
*LOADS
*RC U1252:B 8.800e-08
*RC U877:A0 6.713e-08
*RC U1069:B 7.319e-08
*RC U1071:B 7.357e-08
*RC U1231:A 9.092e-08
*RC U1287:B 7.319e-08
*RC U1304:B0 7.266e-08
*RC U1851:A0 6.786e-08
*RC DP_OP_605J1_132_6326\/U12:A 6.913e-08
*END

*R_NET cycle_cnt_lv2\[3\] 1.211e-02
*DRIVER cycle_cnt_lv2_reg\[3\]:Q
*CELL DFFQX1
*C2_R1_C1 6.056e-03 5.667e-06 6.056e-03 
*LOADS
*RC U1227:A 6.864e-08
*END

*R_NET cycle_cnt_lv2\[2\] 1.149e-01
*DRIVER cycle_cnt_lv2_reg\[2\]:Q
*CELL DFFQX2
*C2_R1_C1 5.743e-02 5.100e-05 5.743e-02 
*LOADS
*RC U868:B 7.093e-08
*RC U994:A 9.092e-08
*RC U1070:B 7.357e-08
*RC U1082:B 7.319e-08
*RC U1145:A1 7.416e-08
*RC U1254:B 7.131e-08
*RC U1313:B 6.479e-08
*RC U1429:C 6.592e-08
*RC U1844:B0 6.606e-08
*END

*R_NET cycle_cnt_lv2\[1\] 1.211e-02
*DRIVER cycle_cnt_lv2_reg\[1\]:Q
*CELL DFFQX1
*C2_R1_C1 6.056e-03 5.667e-06 6.056e-03 
*LOADS
*RC U847:A 6.864e-08
*END

*R_NET cycle_cnt_lv2\[0\] 1.172e-01
*DRIVER cycle_cnt_lv2_reg\[0\]:Q
*CELL DFFQX2
*C2_R1_C1 5.860e-02 5.100e-05 5.860e-02 
*LOADS
*RC U841:A 7.082e-08
*RC U1052:S0 7.900e-08
*RC U1104:B 7.357e-08
*RC U1184:B 7.357e-08
*RC U1260:B 7.093e-08
*RC U1299:A 7.278e-08
*RC U1337:B 7.093e-08
*RC U1621:B 7.357e-08
*RC U1862:S0 7.900e-08
*END

*R_NET coord_v\[6\] 7.418e-02
*DRIVER coord_v_reg\[6\]:Q
*CELL DFFQX1
*C2_R1_C1 3.709e-02 3.400e-05 3.709e-02 
*LOADS
*RC U1395:A 7.299e-08
*RC U1408:B 7.093e-08
*RC U1428:A1 6.928e-08
*RC U1811:A 7.082e-08
*RC U1815:B 7.093e-08
*RC U1897:A0 6.542e-08
*END

*R_NET coord_v\[5\] 1.483e-01
*DRIVER coord_v_reg\[5\]:Q
*CELL DFFQX2
*C2_R1_C1 7.413e-02 6.800e-05 7.413e-02 
*LOADS
*RC U886:B 6.524e-08
*RC U905:B 7.319e-08
*RC U950:B 7.453e-08
*RC U1396:A 7.299e-08
*RC U1407:B 7.357e-08
*RC U1425:B 7.235e-08
*RC U1426:A0N 6.544e-08
*RC U1679:A0 6.896e-08
*RC U1799:A 6.945e-08
*RC U1814:B 7.357e-08
*RC U1832:A0N 6.544e-08
*RC U1898:A0 6.542e-08
*END

*R_NET coord_v\[4\] 1.137e-01
*DRIVER coord_v_reg\[4\]:Q
*CELL DFFQX2
*C2_R1_C1 5.686e-02 5.100e-05 5.686e-02 
*LOADS
*RC U950:C 7.455e-08
*RC U1088:B 7.319e-08
*RC U1090:B 7.319e-08
*RC U1396:B 7.093e-08
*RC U1411:A 7.082e-08
*RC U1678:A0 7.495e-08
*RC U1809:B0 6.776e-08
*RC U1816:B 7.357e-08
*RC U1899:A0 6.542e-08
*END

*R_NET coord_v\[3\] 1.211e-02
*DRIVER coord_v_reg\[3\]:Q
*CELL DFFQX1
*C2_R1_C1 6.056e-03 5.667e-06 6.056e-03 
*LOADS
*RC U1379:A 6.864e-08
*END

*R_NET coord_v\[2\] 7.735e-02
*DRIVER coord_v_reg\[2\]:Q
*CELL DFFQX1
*C2_R1_C1 3.867e-02 3.400e-05 3.867e-02 
*LOADS
*RC U982:B 7.357e-08
*RC U1120:A 8.163e-08
*RC U1397:B 7.093e-08
*RC U1403:B 7.319e-08
*RC U1818:B 7.357e-08
*RC U1901:A0 6.542e-08
*END

*R_NET coord_v\[1\] 9.966e-02
*DRIVER coord_v_reg\[1\]:Q
*CELL DFFQX2
*C2_R1_C1 4.983e-02 4.533e-05 4.983e-02 
*LOADS
*RC U1194:B 7.319e-08
*RC U1395:B 7.093e-08
*RC U1401:B 7.357e-08
*RC U1413:A1 6.632e-08
*RC U1414:B 7.131e-08
*RC U1415:A 7.082e-08
*RC U1820:B 7.319e-08
*RC U1902:A0 6.542e-08
*END

*R_NET coord_v\[0\] 9.763e-02
*DRIVER coord_v_reg\[0\]:Q
*CELL DFFQX2
*C2_R1_C1 4.882e-02 4.533e-05 4.882e-02 
*LOADS
*RC U1196:B 7.319e-08
*RC U1414:A 7.278e-08
*RC U1416:A 7.082e-08
*RC U1666:B 7.131e-08
*RC U1729:B 7.093e-08
*RC U1731:B 6.524e-08
*RC U1896:A1 6.356e-08
*RC U1903:A0 6.542e-08
*END

*R_NET coord_h\[6\] 7.377e-02
*DRIVER coord_h_reg\[6\]:Q
*CELL DFFQX1
*C2_R1_C1 3.689e-02 3.400e-05 3.689e-02 
*LOADS
*RC U943:A 9.092e-08
*RC U1033:A1 6.733e-08
*RC U1387:B 6.479e-08
*RC U1873:A1 6.632e-08
*RC U1874:A0N 6.387e-08
*RC U1932:A1 6.480e-08
*END

*R_NET coord_h\[5\] 1.211e-02
*DRIVER coord_h_reg\[5\]:Q
*CELL DFFQX1
*C2_R1_C1 6.056e-03 5.667e-06 6.056e-03 
*LOADS
*RC U1389:A 6.864e-08
*END

*R_NET coord_h\[4\] 1.211e-02
*DRIVER coord_h_reg\[4\]:Q
*CELL DFFQX1
*C2_R1_C1 6.056e-03 5.667e-06 6.056e-03 
*LOADS
*RC U1380:A 6.864e-08
*END

*R_NET coord_h\[3\] 1.211e-02
*DRIVER coord_h_reg\[3\]:Q
*CELL DFFQX1
*C2_R1_C1 6.056e-03 5.667e-06 6.056e-03 
*LOADS
*RC U1381:A 6.864e-08
*END

*R_NET coord_h\[2\] 9.762e-02
*DRIVER coord_h_reg\[2\]:Q
*CELL DFFQX2
*C2_R1_C1 4.881e-02 4.533e-05 4.881e-02 
*LOADS
*RC U885:A 6.496e-08
*RC U1109:C 7.210e-08
*RC U1134:B 7.357e-08
*RC U1384:B 7.319e-08
*RC U1437:B 7.093e-08
*RC U1681:A1 6.632e-08
*RC U1682:A1 6.733e-08
*RC U1936:A1 6.480e-08
*END

*R_NET coord_h\[1\] 9.918e-02
*DRIVER coord_h_reg\[1\]:Q
*CELL DFFQX2
*C2_R1_C1 4.959e-02 4.533e-05 4.959e-02 
*LOADS
*RC U1109:A 7.425e-08
*RC U1117:A 6.945e-08
*RC U1144:B 7.357e-08
*RC U1388:B 7.319e-08
*RC U1436:A 7.299e-08
*RC U1681:B0 6.584e-08
*RC U1682:A0 6.793e-08
*RC U1937:A1 6.480e-08
*END

*R_NET coord_h\[0\] 1.211e-02
*DRIVER coord_h_reg\[0\]:Q
*CELL DFFQX1
*C2_R1_C1 6.056e-03 5.667e-06 6.056e-03 
*LOADS
*RC U1385:A 6.864e-08
*END

*R_NET rem_v\[6\] 2.458e-02
*DRIVER rem_v_reg\[6\]:Q
*CELL DFFQX1
*C2_R1_C1 1.229e-02 1.133e-05 1.229e-02 
*LOADS
*RC U1841:B0 7.588e-08
*RC U1889:B1 6.338e-08
*END

*R_NET rem_v\[5\] 2.425e-02
*DRIVER rem_v_reg\[5\]:Q
*CELL DFFQX1
*C2_R1_C1 1.212e-02 1.133e-05 1.212e-02 
*LOADS
*RC U1841:C0 7.404e-08
*RC U1890:B1 6.338e-08
*END

*R_NET rem_v\[4\] 3.625e-02
*DRIVER rem_v_reg\[4\]:Q
*CELL DFFQX1
*C2_R1_C1 1.812e-02 1.700e-05 1.812e-02 
*LOADS
*RC U1840:B0 6.776e-08
*RC U1841:A1 7.426e-08
*RC U1891:B1 6.338e-08
*END

*R_NET rem_v\[3\] 3.641e-02
*DRIVER rem_v_reg\[3\]:Q
*CELL DFFQX1
*C2_R1_C1 1.821e-02 1.700e-05 1.821e-02 
*LOADS
*RC U1839:A0 7.501e-08
*RC U1840:A1 6.796e-08
*RC U1892:B1 6.338e-08
*END

*R_NET rem_v\[2\] 3.376e-02
*DRIVER rem_v_reg\[2\]:Q
*CELL DFFQX1
*C2_R1_C1 1.688e-02 1.700e-05 1.688e-02 
*LOADS
*RC U1833:A 6.496e-08
*RC U1838:AN 6.297e-08
*RC U1893:B1 6.338e-08
*END

*R_NET rem_v\[1\] 3.490e-02
*DRIVER rem_v_reg\[1\]:Q
*CELL DFFQX1